  15
  -2.59662341000000       0.132633736534090      !
 C         -2.6831587971        0.0951272566       -0.5980334817
 C         -1.7451153620       -0.4709236632        0.4509758464
 C         -0.3400717835        0.0182479262        0.2463460357
 O         -0.1301252589        1.2111796751        0.2599575293
 N          0.6566102588       -0.9214328689        0.0434288628
 C          1.9923391399       -0.6017695441       -0.1714641830
 N          2.4288674398        0.5768672141       -0.2015691537
 H         -3.7149451876       -0.2282802842       -0.4477091357
 H         -2.3786188123       -0.2108489329       -1.5998745120
 H         -2.6661364991        1.1860238212       -0.5782718736
 H         -1.7624373799       -1.5659358892        0.4380827851
 H         -2.0698814903       -0.1751912514        1.4547978903
 H          0.3987086210       -1.9039651312        0.0462768488
 H          2.6986660243       -1.4026341804       -0.3223905075
 H          1.7624847585        1.2948915161       -0.0596820470
  15
  -2.59661217000000       0.131065521031421      !
 C         -2.6798582321        0.0741009269       -0.6089632802
 C         -1.7459795709       -0.4584497081        0.4613239759
 C         -0.3401372893        0.0253861668        0.2506602053
 O         -0.1246506362        1.2173604776        0.2684860469
 N          0.6504619102       -0.9180232562        0.0345798055
 C          1.9872086424       -0.6038786135       -0.1819689139
 N          2.4318389221        0.5720874931       -0.1945261947
 H         -2.3729035910       -0.2645309295       -1.5996971699
 H         -2.6631622142        1.1651853826       -0.6246544375
 H         -3.7122087882       -0.2441224364       -0.4513836699
 H         -1.7623783395       -1.5534130885        0.4826349202
 H         -2.0756960469       -0.1314576106        1.4538701716
 H          0.3873129780       -1.8994497440        0.0307581134
 H          2.6875365771       -1.4071580597       -0.3483105738
 H          1.7694699423        1.2919184600       -0.0415672743
  15
  -2.59660766000000       0.130441506466965      !
 C         -2.6723655471        0.0611138546        0.6397347744
 C         -1.7510548326       -0.4491965161       -0.4528112798
 C         -0.3431166987        0.0304156822       -0.2465482152
 O         -0.1277655274        1.2229670034       -0.2452398955
 N          0.6496801705       -0.9168317674       -0.0571887036
 C          1.9889692671       -0.6076563471        0.1512661822
 N          2.4341331536        0.5682805287        0.1780259334
 H         -3.7069732146       -0.2514557954        0.4867207997
 H         -2.6532171925        1.1515775457        0.6790796577
 H         -2.3544930394       -0.2999294621        1.6189924813
 H         -2.0918738490       -0.1008640670       -1.4344943633
 H         -1.7680263950       -1.5437119301       -0.4976224125
 H          0.3863606956       -1.8978838787       -0.0694798959
 H          2.6897851114       -1.4136579650        0.2995712546
 H          1.7705509486        1.2898256810        0.0388061262
  15
  -2.59660384000000       0.129915286492391      !
 C         -2.7202143902        0.2302662178        0.5088661400
 C         -1.7381902786       -0.5598178777       -0.3357509582
 C         -0.3402988549       -0.0276102189       -0.1957675188
 O         -0.1561530570        1.1674129115       -0.2713268745
 N          0.6848915620       -0.9364595679        0.0072513331
 C          2.0209446193       -0.5804418526        0.1511292405
 N          2.4321190758        0.6072181037        0.1160550101
 H         -3.7458954881       -0.1244561260        0.3912409509
 H         -2.6954570749        1.2866617020        0.2361853102
 H         -2.4626654607        0.1685526265        1.5672002778
 H         -2.0204506547       -0.5154025759       -1.3935974112
 H         -1.7588054894       -1.6199775986       -0.0610312428
 H          0.4506232739       -1.9243069847        0.0457789478
 H          2.7512189069       -1.3598447623        0.3009646300
 H          1.7451058950        1.3058585414       -0.0243268128
  15
  -2.59658458000000       0.127294304403050      !
 C         -2.7288781254        0.1984061611       -0.4916727430
 C         -1.7338450397       -0.5359604217        0.3873565692
 C         -0.3382218625       -0.0142309694        0.1947648951
 O         -0.1566244520        1.1831820889        0.1701573436
 N          0.6881862989       -0.9350098271        0.0649637619
 C          2.0228387241       -0.5907221426       -0.1161021968
 N          2.4305341157        0.5964468622       -0.1841286848
 H         -3.7516640411       -0.1522278129       -0.3405137063
 H         -2.4833215622        0.0738696658       -1.5473253589
 H         -2.7050684904        1.2693320029       -0.2836770962
 H         -1.7571532678       -1.6113883578        0.1806628242
 H         -2.0013585981       -0.4245013872        1.4440531250
 H          0.4558541169       -1.9229492507        0.1113980281
 H          2.7537362415       -1.3785126904       -0.2052205603
 H          1.7405121124        1.3011200801       -0.0986979072
  15
  -2.59654101000000       0.121558571160441      !
 C         -2.6367197834       -0.0348981081       -0.6803998132
 C         -1.7567341406       -0.3941638131        0.5018144493
 C         -0.3425677469        0.0617024229        0.2856647224
 O         -0.0949343353        1.2463129567        0.3439219692
 N          0.6150925153       -0.8983871073        0.0064692456
 C          1.9549448929       -0.6137898659       -0.2284086352
 N          2.4347489598        0.5480385900       -0.1979707080
 H         -2.6213691859        1.0417764164       -0.8579133372
 H         -3.6751886495       -0.3354462223       -0.5280940908
 H         -2.2804093964       -0.5151548190       -1.5931133093
 H         -1.7735023760       -1.4732185997        0.6898360871
 H         -2.1320883017        0.0772429298        1.4172171279
 H          0.3206730194       -1.8698797209       -0.0365461074
 H          2.6263351735       -1.4281403297       -0.4512571025
 H          1.8004196392        1.2797022634        0.0076198194
  15
  -2.59631897000000       9.610435489017620E-002 !
 C         -2.7913367689        0.3479368768       -0.2182516327
 C         -1.7183972555       -0.6384173364        0.2054419434
 C         -0.3359029545       -0.0590544562        0.0791811379
 O         -0.1878389945        1.1400771485       -0.0125700793
 N          0.7256141037       -0.9480207757        0.0917718915
 C          2.0599542991       -0.5702910685       -0.0066390098
 N          2.4373475822        0.6233871740       -0.1232821034
 H         -3.7974637840       -0.0634874390       -0.1162712285
 H         -2.6523401165        0.6487908079       -1.2578672244
 H         -2.7343929386        1.2567390171        0.3832442020
 H         -1.7795195630       -1.5521326020       -0.3963775260
 H         -1.8732261218       -0.9493608268        1.2448604666
 H          0.5176563057       -1.9377116001        0.1901306958
 H          2.8184024894       -1.3365484683        0.0199562017
 H          1.7233883764        1.3088321610       -0.1420475900
  15
  -2.59625518000000       8.983120256271157E-002 !
 C         -2.7977715814        0.3909026450        0.0869783493
 C         -1.7169191482       -0.6696736472       -0.0150080374
 C         -0.3356323783       -0.0733786575       -0.0337130366
 O         -0.1909879989        1.1226739885       -0.1633008469
 N          0.7291800739       -0.9495354613        0.0882307809
 C          2.0635307767       -0.5604929897        0.0804537226
 N          2.4387005874        0.6337935281       -0.0377069420
 H         -3.8019759656       -0.0380545279        0.0896128949
 H         -2.7299776205        1.0892471298       -0.7488588593
 H         -2.6784737178        0.9779377794        0.9990880814
 H         -1.8523639080       -1.2683260854       -0.9229676892
 H         -1.7896098570       -1.3715406963        0.8234544570
 H          0.5229022747       -1.9400049842        0.1829820087
 H          2.8244285458       -1.3181515828        0.1804156652
 H          1.7224270727        1.3111013993       -0.1282645693
  15
  -2.59341053000000       4.427072039690118E-003 !
 C         -2.7819195641       -0.0768619172       -0.6085082699
 C         -1.7511463311       -0.6108902716        0.3680732346
 C         -0.4697156313        0.1650556121        0.2862050108
 O         -0.4871576700        1.3623586034        0.4761707002
 N          0.6991614234       -0.5158858903       -0.0080998301
 C          1.9210197080        0.1311927384       -0.1030534654
 N          3.0161740057       -0.4355957231       -0.3686462510
 H         -3.7304689285       -0.6130574863       -0.5420968575
 H         -2.4238006128       -0.1548367091       -1.6360669095
 H         -2.9785954255        0.9796107599       -0.4182113682
 H         -1.5531195995       -1.6722185551        0.1833545210
 H         -2.1271124644       -0.5471738266        1.3953776544
 H          0.6778742568       -1.5186064530       -0.1606825046
 H          1.9231137968        1.1970475015        0.0619007410
 H          3.0379367363       -1.4086408639       -0.5240094299
  15
  -2.59340871000000       4.418554082024947E-003 !
 C         -2.7780121517       -0.0813795037       -0.6139672240
 C         -1.7520327348       -0.6081349961        0.3717692982
 C         -0.4699761565        0.1665511458        0.2887552713
 O         -0.4859235466        1.3634968793        0.4810005760
 N          0.6973689781       -0.5148683517       -0.0102225616
 C          1.9200362782        0.1307532152       -0.1040920567
 N          3.0146655620       -0.4367455018       -0.3708346553
 H         -2.4154766292       -0.1693367081       -1.6394012642
 H         -2.9742271230        0.9770820993       -0.4341846052
 H         -3.7276305132       -0.6156127072       -0.5467953979
 H         -1.5537522775       -1.6710723461        0.1967141536
 H         -2.1322450147       -0.5355460231        1.3970122159
 H          0.6746388516       -1.5170789749       -0.1653540467
 H          1.9238627097        1.1959493447        0.0661083818
 H          3.0357628273       -1.4100745642       -0.5282972831
  15
  -2.59340701000000       4.410612552368113E-003 !
 C         -2.7616169963       -0.2829927877        0.6241173281
 C         -1.7633573265       -0.4654104501       -0.5036188396
 C         -0.4761619340        0.2478878703       -0.2117186657
 O         -0.4920192484        1.4436645434       -0.0115819531
 N          0.6956197485       -0.4884241637       -0.1735830632
 C          1.9220337749        0.0980470279        0.0961616814
 N          3.0205234432       -0.5201158112        0.1424295232
 H         -3.7158158358       -0.7699383720        0.4139778461
 H         -2.9554825552        0.7771103175        0.7963862073
 H         -2.3745814728       -0.6929241713        1.5582917724
 H         -2.1692269481       -0.0722415774       -1.4426394380
 H         -1.5655417023       -1.5281892705       -0.6805939115
 H          0.6730638704       -1.4880934070       -0.3450995529
 H          1.9251065806        1.1613495403        0.2784695137
 H          3.0425614866       -1.4919895037       -0.0209107924
  15
  -2.59340478000000       4.400216772026891E-003 !
 C         -2.7728076336       -0.2709926940        0.6117998589
 C         -1.7598061908       -0.4730388112       -0.4993353111
 C         -0.4749866155        0.2434987815       -0.2048656019
 O         -0.4932277814        1.4399005516       -0.0098586526
 N          0.6977862287       -0.4910489199       -0.1626276362
 C          1.9246484881        0.1001674104        0.0937106864
 N          3.0242824497       -0.5164859001        0.1349627342
 H         -2.9679506121        0.7920200557        0.7637301881
 H         -2.3992072671       -0.6658403888        1.5580621507
 H         -3.7245760079       -0.7604961895        0.3965412065
 H         -2.1536094240       -0.0957538201       -1.4498518085
 H         -1.5611465189       -1.5388047290       -0.6557703196
 H          0.6768410001       -1.4908942040       -0.3333823215
 H          1.9274464956        1.1655073781        0.2659657392
 H          3.0449972821       -1.4899352460       -0.0199693140
  15
  -2.59339551000000       4.357264010673368E-003 !
 C         -2.7598921621       -0.0940754867       -0.6408280353
 C         -1.7567229754       -0.5987750324        0.3791554769
 C         -0.4707872955        0.1700808852        0.3046509367
 O         -0.4807104899        1.3647822053        0.5112297256
 N          0.6918967780       -0.5131104275       -0.0085880118
 C          1.9168838591        0.1288349368       -0.1027147902
 N          3.0048638259       -0.4376415448       -0.3968058543
 H         -2.9552043712        0.9693046341       -0.4925935092
 H         -3.7129152598       -0.6226471681       -0.5790217344
 H         -2.3772397871       -0.2101975226       -1.6559171168
 H         -1.5582072233       -1.6663691320        0.2355206376
 H         -2.1582818362       -0.4992195629        1.3939189078
 H          0.6623792391       -1.5116522101       -0.1852614212
 H          1.9281057422        1.1900782335        0.0900693921
 H          3.0189994575       -1.4068165684       -0.5763246844
  15
  -2.59335356000000       4.168069863970157E-003 !
 C         -2.8622988084       -0.0708897350        0.4959079143
 C         -1.7350342325       -0.6130975258       -0.3631185972
 C         -0.4686576486        0.1694531037       -0.1687464613
 O         -0.5159552901        1.3792362180       -0.0948692629
 N          0.7274987384       -0.5235279151       -0.0939575610
 C          1.9405324647        0.1254311140        0.0753134319
 N          3.0633696049       -0.4472556779        0.1229426905
 H         -2.6111689049       -0.1346637989        1.5558099613
 H         -3.7985137289       -0.6101170312        0.3389907292
 H         -3.0386298967        0.9830304687        0.2737383313
 H         -2.0079733761       -0.5725890424       -1.4236799034
 H         -1.5512535069       -1.6692099411       -0.1371223581
 H          0.7346519246       -1.5346270142       -0.1776361031
 H          1.9104086090        1.1999814519        0.1647790040
 H          3.1164806610       -1.4279661267        0.0392525214
  15
  -2.59332295000000       4.035223627832736E-003 !
 C         -2.7034468643       -0.1456268407       -0.7141596458
 C         -1.7707183631       -0.5644862288        0.4066349848
 C         -0.4737752247        0.1865452719        0.3445327770
 O         -0.4620991509        1.3732612425        0.5929566357
 N          0.6718452422       -0.5021706322       -0.0149427731
 C          1.9053230049        0.1228363804       -0.1080405582
 N          2.9759533918       -0.4474275504       -0.4538950372
 H         -3.6638100550       -0.6624154152       -0.6659195259
 H         -2.2604150414       -0.3530293063       -1.6894372250
 H         -2.8975433014        0.9274294183       -0.6718503372
 H         -1.5760793314       -1.6419212826        0.3722049356
 H         -2.2317254305       -0.3719007369        1.3820489680
 H          0.6218966048       -1.4926574007       -0.2286586595
 H          1.9397036331        1.1738435702        0.1323241979
 H          2.9681043979       -1.4065019306       -0.6813580370
  15
  -2.59329389000000       3.913024404986656E-003 !
 C         -2.9014809296        0.0316823341       -0.3717917238
 C         -1.7198839811       -0.6852461216        0.2553489093
 C         -0.4635214470        0.1329754398        0.1676712324
 O         -0.5210019266        1.3406199273        0.2610432915
 N          0.7384096011       -0.5332794945       -0.0002387594
 C          1.9467975601        0.1404516458       -0.0788543640
 N          3.0721823345       -0.4132377007       -0.2119814236
 H         -3.0611815446        0.9976596509        0.1100860249
 H         -3.8262236084       -0.5434380316       -0.2914687025
 H         -2.7195758309        0.2311727821       -1.4289038604
 H         -1.5574281384       -1.6545358690       -0.2284126871
 H         -1.9194652406       -0.9028508120        1.3106029685
 H          0.7529333761       -1.5462933205       -0.0540111286
 H          1.9106733207        1.2167682168       -0.0172546917
 H          3.1307977928       -1.3957318531       -0.2659906340
  15
  -2.59325192000000       3.743040101552176E-003 !
 C         -2.9085379290        0.0115640921        0.3857239300
 C         -1.7199607884       -0.6719111951       -0.2651472266
 C         -0.4654241540        0.1425919952       -0.1291245508
 O         -0.5279119282        1.3533019034       -0.1013697070
 N          0.7424612146       -0.5304595226       -0.0602931199
 C          1.9518927866        0.1365540010        0.0526730778
 N          3.0796450189       -0.4261493922        0.0976968818
 H         -2.7401197186        0.1505298503        1.4551005284
 H         -3.8329902989       -0.5563396316        0.2611417935
 H         -3.0610494942        1.0037383962       -0.0430611101
 H         -1.9109571414       -0.8411805059       -1.3310008747
 H         -1.5584866400       -1.6624287590        0.1750007122
 H          0.7598634223       -1.5442008948       -0.1047649092
 H          1.9136869470        1.2133630935        0.1017496080
 H          3.1372260303       -1.4091146426        0.0493347438
  15
  -2.59312783000000       3.282439003629322E-003 !
 C         -2.4464624850       -1.0398594452       -0.2834557135
 C         -1.8685567591        0.3139420430        0.0972532885
 C         -0.3639565106        0.3862380479        0.1456808030
 O          0.1388641326        1.3844301956        0.6155415850
 N          0.3987916719       -0.6619623317       -0.3435263416
 C          1.7894430688       -0.6742807611       -0.3436773516
 N          2.4974431278        0.2691912898        0.0913403129
 H         -3.5375491347       -1.0397417543       -0.2431775399
 H         -2.0954683274       -1.8222213900        0.3910586240
 H         -2.1629556801       -1.3226576921       -1.2981388599
 H         -2.2421241128        0.6176971997        1.0819996920
 H         -2.2208533147        1.0867418182       -0.5952442675
 H         -0.0727838701       -1.4713859724       -0.7334807956
 H          2.2982293424       -1.5386892835       -0.7401051848
 H          2.0141539704        1.0552496495        0.4490012094
