  15
         -2.59662341
 C         -2.6831587971        0.0951272566       -0.5980334817
 C         -1.7451153620       -0.4709236632        0.4509758464
 C         -0.3400717835        0.0182479262        0.2463460357
 O         -0.1301252589        1.2111796751        0.2599575293
 N          0.6566102588       -0.9214328689        0.0434288628
 C          1.9923391399       -0.6017695441       -0.1714641830
 N          2.4288674398        0.5768672141       -0.2015691537
 H         -3.7149451876       -0.2282802842       -0.4477091357
 H         -2.3786188123       -0.2108489329       -1.5998745120
 H         -2.6661364991        1.1860238212       -0.5782718736
 H         -1.7624373799       -1.5659358892        0.4380827851
 H         -2.0698814903       -0.1751912514        1.4547978903
 H          0.3987086210       -1.9039651312        0.0462768488
 H          2.6986660243       -1.4026341804       -0.3223905075
 H          1.7624847585        1.2948915161       -0.0596820470
