15
 energy: -22.555486510882 gnorm: 0.000094816986 xtb: 6.7.0 (08769fc)
C           -2.50525826187615       -0.18251611103230       -0.70550486168451
C           -1.79014630163722       -0.32632401319698        0.64056592806804
C           -0.35884984469800        0.16362852325272        0.53737439821317
O            0.01694999677179        1.22583131487207        0.98491090855910
N            0.46456942680624       -0.70629582419145       -0.13329838954634
C            1.81686697376626       -0.50973955886168       -0.41906814388350
N            2.55560311608899        0.45727245893482       -0.13855325150321
H           -3.53938333495049       -0.50457222115253       -0.61054388324112
H           -2.02633921520920       -0.78332491627932       -1.47599472836661
H           -2.49615272481291        0.85716462171107       -1.02556211187917
H           -1.80176383801173       -1.36916897049540        0.96456839295601
H           -2.29734484145782        0.28090317272789        1.39133406358723
H            0.05358125723380       -1.57091768991817       -0.45767206304274
H            2.24987749570318       -1.34322679238872       -0.96560153429574
H            2.10497576788336        1.21264166981797        0.37391618025953
