18
 energy: -24.500029964081 gnorm: 0.000094433496 xtb: 6.7.1 (edcfbbe)
C            5.42413801733511        1.77600534225345       -1.68657715353794
C            4.34612832007052        0.84596059590794       -2.13615790660384
C            4.18447612433472        0.25963150635429       -3.56245684504752
C            3.69216766473197       -1.11141870381286       -3.11618517679121
C            2.17857039153194       -0.93186619178977       -3.14254856037813
C            2.18891744920312        0.41640606885706       -2.43115354966699
N            3.25058998660581        1.20489054276732       -3.08277027204432
C            3.09873240525420        0.28166536285840       -1.19186326361411
C            4.05247096453315       -0.68527335043384       -1.68161446981109
H            5.43117885360242        2.65024134029196       -2.33515353759730
H            6.39992621084219        1.29186810206867       -1.73129494807906
H            5.23583225724693        2.09985508511106       -0.66510805829899
H            4.87007071865807        0.51330622605469       -4.34962537410961
H            4.13355941293304       -2.00119462653329       -3.54694965436657
H            1.65131956833485       -1.69187993830940       -2.56710089388968
H            1.77394457068015       -0.87331467173640       -4.15376851813895
H            1.25461979676770        0.95985688311532       -2.33984764800438
H            4.85292728733437       -1.12649957302480       -1.11365417002018
