  15
         -2.46157765
 C          2.5430847912       -0.5060920067        0.2992398214
 C          1.2095682707       -0.6305664077       -0.4140263643
 C          0.5094739120        0.7157372254       -0.5448502659
 O         -0.0132517030        1.2632231862        0.6398668548
 C         -1.0010320338        0.8971255541       -0.3124584439
 C         -1.8768217488       -0.2641643428        0.0303785466
 O         -1.4765693144       -1.3792260957        0.1629977290
 H          2.4112907332       -0.0664747591        1.2890368958
 H          3.2256170551        0.1414592920       -0.2527152840
 H          3.0325839971       -1.4735694338        0.4264831455
 H          0.5511985650       -1.3074086785        0.1424584799
 H          1.3317190871       -1.0828204240       -1.4056089011
 H          1.0385778187        1.4500273304       -1.1628202232
 H         -1.5076415103        1.7481494773       -0.7803779102
 H         -2.9300383692       -0.0946998994        0.2209891028
  15
         -2.46155347
 C          1.7471148805       -0.8421370160        0.6080395971
 C          1.3301515079       -0.3703545610       -0.7726004584
 C          0.4917542623        0.9095692728       -0.7104913256
 O          0.0788303307        1.3515700170        0.5616642399
 C         -0.9793255060        0.8875391373       -0.2580172645
 C         -1.6540093925       -0.3821584432        0.1502919696
 O         -1.0927032577       -1.4279874246        0.2610594326
 H          2.3312256724       -0.0771700362        1.1214802780
 H          2.3410512244       -1.7574306938        0.5722986478
 H          0.8660309538       -1.0381856446        1.2218531219
 H          0.7426725669       -1.1497257613       -1.2736128059
 H          2.2151289267       -0.2121610279       -1.4016588292
 H          0.8027195270        1.7176869942       -1.3846166219
 H         -1.6481884471        1.6799887025       -0.6107746424
 H         -2.7068091115       -0.3625186800        0.4065305636
  15
         -2.46111487
 C          1.8822652008       -1.2329659957       -0.4871015821
 C          1.4144551724       -0.1455364924        0.4655215451
 C          0.6172676820        0.9480927322       -0.2361377700
 O         -0.3467942937        1.6376208016        0.5226179644
 C         -0.8925097332        0.8035563006       -0.4906662307
 C         -1.6252269797       -0.4236973993       -0.0525655546
 O         -1.0910186978       -1.4565111173        0.2138168208
 H          2.5093952302       -0.8223141388       -1.2794220850
 H          1.0285930378       -1.7189945763       -0.9628121329
 H          2.4564388339       -2.0066334835        0.0260563041
 H          2.2620329450        0.3039864618        0.9961111149
 H          0.7745296392       -0.5793585630        1.2436313561
 H          1.1942805699        1.5781529764       -0.9225643905
 H         -1.3411486607        1.3463823323       -1.3296722012
 H         -2.6990892619       -0.3736702688        0.0831845100
