  15
  -2.46158254000000       0.129748307878653      !
 C          2.5385076103       -0.5123754616        0.3108075581
 C          1.2032914079       -0.6473479961       -0.3970563024
 C          0.5103053093        0.6990307285       -0.5609153870
 O          0.0087200829        1.2867186459        0.6136041519
 C         -0.9956878403        0.8971614572       -0.3121005647
 C         -1.8720891447       -0.2489327746        0.0778949214
 O         -1.4988569455       -1.3804278344        0.1318244834
 H          3.2227500949        0.1200203075       -0.2566293820
 H          3.0242910362       -1.4787654021        0.4592092148
 H          2.4098467643       -0.0497578416        1.2908528146
 H          0.5418657647       -1.3063277148        0.1772140904
 H          1.3208464811       -1.1255239507       -1.3767654178
 H          1.0353033533        1.4101600216       -1.2088207598
 H         -1.5046761749        1.7353923281       -0.8001162420
 H         -2.8925516914       -0.0524178152        0.3851015322
  15
  -2.46157614000000       0.128872563156655      !
 C          2.5329877802       -0.5095248218        0.3197700269
 C          1.2032710261       -0.6477266222       -0.3980240371
 C          0.5087223226        0.6970051296       -0.5671389408
 O          0.0156260318        1.2937257684        0.6066637925
 C         -0.9955661780        0.8950823071       -0.3078506826
 C         -1.8666208320       -0.2496557583        0.0982400999
 O         -1.5043271013       -1.3855628675        0.1137900510
 H          3.0171831335       -1.4751860871        0.4768946168
 H          2.3963474926       -0.0419334434        1.2964483653
 H          3.2221005743        0.1200493110       -0.2453181772
 H          0.5392139529       -1.3083745199        0.1711880591
 H          1.3291623788       -1.1259411980       -1.3766878134
 H          1.0286090227        1.4037219567       -1.2239727029
 H         -1.5096936940        1.7273658720       -0.8006771429
 H         -2.8697680258       -0.0485672928        0.4544213665
  15
  -2.46155930000000       0.126596394829796      !
 C          2.5366311948       -0.5062824704        0.3192884616
 C          1.2015878748       -0.6503392109       -0.3871398454
 C          0.5080749233        0.6936135235       -0.5679898193
 O          0.0193327024        1.3052174146        0.5992311275
 C         -0.9955690797        0.8920833224       -0.3053043772
 C         -1.8611668865       -0.2503986863        0.1191010249
 O         -1.5146533887       -1.3913074089        0.0913244296
 H          2.4080768686       -0.0289672447        1.2920622953
 H          3.2218421436        0.1166690956       -0.2572505149
 H          3.0212798365       -1.4708730357        0.4824578630
 H          0.5399163498       -1.3025288121        0.1946280485
 H          1.3191079158       -1.1409532336       -1.3606430861
 H          1.0239443203        1.3917476930       -1.2370910515
 H         -1.5138267981        1.7153036044       -0.8087779686
 H         -2.8427097394       -0.0429898318        0.5287542935
  15
  -2.46155801000000       0.126423699616269      !
 C          1.7514959011       -0.8484510454        0.6079454199
 C          1.3232934797       -0.3888415558       -0.7731786560
 C          0.4989048096        0.9004685689       -0.7155988379
 O          0.0853624293        1.3468747069        0.5547768631
 C         -0.9741461394        0.8938719728       -0.2688791388
 C         -1.6619266669       -0.3695495540        0.1359963598
 O         -1.1009112735       -1.4089195673        0.2961007405
 H          0.8754073363       -1.0254742685        1.2345782058
 H          2.3512700541       -0.0845602527        1.1047239323
 H          2.3335225494       -1.7715966345        0.5765765573
 H          0.7213961228       -1.1678946756       -1.2574780903
 H          2.2017030987       -0.2478835625       -1.4151582051
 H          0.8233815796        1.7060709141       -1.3862981621
 H         -1.6336130865        1.6933563683       -0.6234888663
 H         -2.7256991155       -0.3514095408        0.3398001089
  15
  -2.46155102000000       0.125492021037392      !
 C          1.7350321630       -0.8469415275        0.6203512116
 C          1.3278481606       -0.3892028276       -0.7678696842
 C          0.4947349842        0.8948714836       -0.7263221576
 O          0.0954412464        1.3672106811        0.5391161295
 C         -0.9725228533        0.8901863927       -0.2606464579
 C         -1.6504556611       -0.3664735283        0.1812242228
 O         -1.1076293737       -1.4254657329        0.2549713205
 H          2.3330544040       -1.7597081810        0.5975978611
 H          0.8503745780       -1.0414344488        1.2289374268
 H          2.3119516955       -0.0750393407        1.1313464592
 H          0.7405635845       -1.1720599220       -1.2639033606
 H          2.2174234750       -0.2412267530       -1.3927117751
 H          0.8015370941        1.6855226574       -1.4226196846
 H         -1.6405577197        1.6776224567       -0.6260532505
 H         -2.6847597153       -0.3229487189        0.5017595566
  15
  -2.46154360000000       0.124510540308774      !
 C          1.7527471804       -0.8553133629        0.5994381703
 C          1.3265552436       -0.3820352797       -0.7777532075
 C          0.5022205114        0.9067985136       -0.7087896921
 O          0.0781580801        1.3348531694        0.5646626379
 C         -0.9743154921        0.8950096677       -0.2747193964
 C         -1.6657351024       -0.3741786335        0.1057331460
 O         -1.0970305091       -1.3984313769        0.3266645130
 H          2.3530090418       -0.0969696363        1.1039268864
 H          2.3338530000       -1.7788073915        0.5599023607
 H          0.8756347936       -1.0370596684        1.2235270464
 H          0.7257353546       -1.1563010204       -1.2708518869
 H          2.2061738051       -0.2347147524       -1.4166936677
 H          0.8334229239        1.7222348691       -1.3642510912
 H         -1.6303844182        1.7007173015       -0.6215923596
 H         -2.7432079448       -0.3773087906        0.2221767422
  15
  -2.46111944000000       7.948326127343949E-002 !
 C          1.8725408284       -1.2527291507       -0.4745594139
 C          1.4130390480       -0.1519397193        0.4666295383
 C          0.6246908403        0.9403845577       -0.2466003011
 O         -0.3310263559        1.6491394513        0.5047470456
 C         -0.8868504530        0.8053467118       -0.4952558224
 C         -1.6285436514       -0.4092169539       -0.0372163228
 O         -1.1046531435       -1.4505703437        0.2176660961
 H          1.0153991992       -1.7348978714       -0.9478452013
 H          2.4380232403       -2.0270697068        0.0471754452
 H          2.5055580085       -0.8554006359       -1.2691389029
 H          2.2643087726        0.2964777614        0.9924712476
 H          0.7698650518       -0.5726005662        1.2490995626
 H          1.2054605264        1.5553848280       -0.9434015852
 H         -1.3332363627        1.3397753356       -1.3407836251
 H         -2.6978303514       -0.3414904109        0.1233088587
  15
  -2.46111939000000       7.947905594582688E-002 !
 C          1.8743922110       -1.2516897527       -0.4756508427
 C          1.4119076423       -0.1533139548        0.4668241889
 C          0.6245181026        0.9400759406       -0.2457428619
 O         -0.3315431052        1.6480690107        0.5059247474
 C         -0.8868888998        0.8058291276       -0.4956147149
 C         -1.6288471566       -0.4094949008       -0.0400526507
 O         -1.1044277121       -1.4491508850        0.2195038070
 H          2.4364395211       -2.0283142742        0.0464108424
 H          2.5115363849       -0.8526847991       -1.2662121610
 H          1.0186820228       -1.7314464150       -0.9544471765
 H          2.2614176944        0.2945184005        0.9959058858
 H          0.7670564854       -0.5762264858        1.2466729518
 H          1.2060897962        1.5558910057       -0.9411779813
 H         -1.3325799801        1.3416129561       -1.3406607856
 H         -2.6989158722       -0.3434807416        0.1150728725
  15
  -2.46111838000000       7.939415595319473E-002 !
 C          1.8816197345       -1.2494900627       -0.4722440974
 C          1.4095710353       -0.1543556838        0.4692703061
 C          0.6239275127        0.9375610213       -0.2474495998
 O         -0.3288896742        1.6523837308        0.5014345833
 C         -0.8882997521        0.8052316561       -0.4937699831
 C         -1.6310500605       -0.4059005325       -0.0283870127
 O         -1.1087010459       -1.4551925869        0.2076308593
 H          2.5215151956       -0.8461825888       -1.2582512956
 H          1.0309023529       -1.7320865012       -0.9564330366
 H          2.4444581860       -2.0244429964        0.0513785002
 H          2.2543538452        0.2955297618        1.0041042377
 H          0.7612020463       -0.5801998454        1.2445650255
 H          1.2060479744        1.5482219722       -0.9468657909
 H         -1.3339932240        1.3355552428       -1.3421585413
 H         -2.6972282762       -0.3286540896        0.1545661083
