  15
         -2.46158254
 C          2.5385076103       -0.5123754616        0.3108075581
 C          1.2032914079       -0.6473479961       -0.3970563024
 C          0.5103053093        0.6990307285       -0.5609153870
 O          0.0087200829        1.2867186459        0.6136041519
 C         -0.9956878403        0.8971614572       -0.3121005647
 C         -1.8720891447       -0.2489327746        0.0778949214
 O         -1.4988569455       -1.3804278344        0.1318244834
 H          3.2227500949        0.1200203075       -0.2566293820
 H          3.0242910362       -1.4787654021        0.4592092148
 H          2.4098467643       -0.0497578416        1.2908528146
 H          0.5418657647       -1.3063277148        0.1772140904
 H          1.3208464811       -1.1255239507       -1.3767654178
 H          1.0353033533        1.4101600216       -1.2088207598
 H         -1.5046761749        1.7353923281       -0.8001162420
 H         -2.8925516914       -0.0524178152        0.3851015322
  15
         -2.46155801
 C          1.7514959011       -0.8484510454        0.6079454199
 C          1.3232934797       -0.3888415558       -0.7731786560
 C          0.4989048096        0.9004685689       -0.7155988379
 O          0.0853624293        1.3468747069        0.5547768631
 C         -0.9741461394        0.8938719728       -0.2688791388
 C         -1.6619266669       -0.3695495540        0.1359963598
 O         -1.1009112735       -1.4089195673        0.2961007405
 H          0.8754073363       -1.0254742685        1.2345782058
 H          2.3512700541       -0.0845602527        1.1047239323
 H          2.3335225494       -1.7715966345        0.5765765573
 H          0.7213961228       -1.1678946756       -1.2574780903
 H          2.2017030987       -0.2478835625       -1.4151582051
 H          0.8233815796        1.7060709141       -1.3862981621
 H         -1.6336130865        1.6933563683       -0.6234888663
 H         -2.7256991155       -0.3514095408        0.3398001089
  15
         -2.46111944
 C          1.8725408284       -1.2527291507       -0.4745594139
 C          1.4130390480       -0.1519397193        0.4666295383
 C          0.6246908403        0.9403845577       -0.2466003011
 O         -0.3310263559        1.6491394513        0.5047470456
 C         -0.8868504530        0.8053467118       -0.4952558224
 C         -1.6285436514       -0.4092169539       -0.0372163228
 O         -1.1046531435       -1.4505703437        0.2176660961
 H          1.0153991992       -1.7348978714       -0.9478452013
 H          2.4380232403       -2.0270697068        0.0471754452
 H          2.5055580085       -0.8554006359       -1.2691389029
 H          2.2643087726        0.2964777614        0.9924712476
 H          0.7698650518       -0.5726005662        1.2490995626
 H          1.2054605264        1.5553848280       -0.9434015852
 H         -1.3332363627        1.3397753356       -1.3407836251
 H         -2.6978303514       -0.3414904109        0.1233088587
