15
 energy: -22.874075059824 gnorm: 0.000029807452 xtb: 6.7.0 (08769fc)
C            2.61845735608138       -0.50145407510658        0.17148570212168
C            1.16485019668386       -0.65130254696868       -0.27312739233710
C            0.49221144345526        0.69757619200376       -0.33875460721710
O           -0.08274737877538        1.22776075909070        0.80894655495361
C           -0.98103392715515        0.88189453848558       -0.21404314754388
C           -1.89512731622191       -0.26994381128909       -0.01313185214379
O           -1.74491867730322       -1.17174031485717        0.76564413601176
H            3.17624339725572        0.10805532577842       -0.53657147795988
H            3.09069988759541       -1.47803832346869        0.23651576421598
H            2.66251219428513       -0.02677400231193        1.14880187023958
H            0.62843936123267       -1.28670330207398        0.43268918781433
H            1.12194932425234       -1.11171990269999       -1.26347168035022
H            1.00096131931397        1.42969441479853       -0.96785233936923
H           -1.42415833746082        1.72558260056619       -0.73965064898449
H           -2.77647273513929       -0.22628085424703       -0.68337535835119
