  13
  -2.39115250000000       0.131358111279419      !
 C         -1.8172646200        1.1836523780        0.5780645741
 C         -0.9793297271        0.1430546814       -0.0750529855
 O         -1.2893789519       -0.3637587950       -1.1155237924
 C          0.3205979683       -0.3118691577        0.5679102109
 O          0.4252616406       -1.7187650065        0.3821469508
 C          1.4419210677        0.4211398266        0.0714737089
 C          2.3929118866        1.0182160207       -0.3803841673
 H         -2.0977042150        1.9470701665       -0.1467685323
 H         -1.2887222485        1.6684712045        1.3983183029
 H         -2.7327096038        0.7415364757        0.9704969219
 H          0.2609644060       -0.1633754523        1.6579343890
 H          0.1496755043       -1.9191249197       -0.5376857492
 H          3.2328898506        1.5376194109       -0.7813550425
  13
  -2.39115094000000       0.131141446300020      !
 C         -1.8239178964        1.1775063682        0.5810399227
 C         -0.9798144079        0.1436476326       -0.0744313323
 O         -1.2846741539       -0.3583372206       -1.1191367328
 C          0.3211290718       -0.3096667047        0.5682199385
 O          0.4236865258       -1.7170936631        0.3865500576
 C          1.4429631947        0.4199306525        0.0679870478
 C          2.3958028755        1.0152671238       -0.3829191066
 H         -2.7668157073        0.7416384622        0.9098095069
 H         -2.0515769270        1.9770446802       -0.1231838812
 H         -1.3258533804        1.6147505302        1.4461804883
 H          0.2636096238       -0.1576677725        1.6577634785
 H          0.1498006007       -1.9190150723       -0.5335503489
 H          3.2374114618        1.5323318703       -0.7834205061
  13
  -2.39114997000000       0.131006905355577      !
 C         -1.8299503209        1.1690778743        0.5868555448
 C         -0.9787502897        0.1459770205       -0.0767339025
 O         -1.2786303483       -0.3533059133       -1.1241364975
 C          0.3203300661       -0.3063387100        0.5691300681
 O          0.4217186239       -1.7143108284        0.3914165429
 C          1.4434485508        0.4204987036        0.0676652465
 C          2.3978041479        1.0098515236       -0.3880841743
 H         -1.2666449165        1.7431502498        1.3220619249
 H         -2.6721931761        0.6947503179        1.0896150334
 H         -2.2280494137        1.8609440082       -0.1548348252
 H          0.2607531276       -0.1504662777        1.6580304641
 H          0.1510473472       -1.9178070007       -0.5292268407
 H          3.2360574168        1.5252595424       -0.7972564065
  13
  -2.39109719000000       0.123890549526321      !
 C         -1.8117181654        1.1906260222        0.5740942864
 C         -0.9818093921        0.1384334051       -0.0710772628
 O         -1.2905008111       -0.3652749797       -1.1138072560
 C          0.3203288567       -0.3147620742        0.5685861703
 O          0.4270097067       -1.7209891676        0.3794728597
 C          1.4396644086        0.4206242001        0.0710844549
 C          2.3896470654        1.0216629716       -0.3775530158
 H         -1.5221994040        1.3520823821        1.6120696592
 H         -2.8621106971        0.9020649245        0.5527825682
 H         -1.7122342043        2.1340446736        0.0378980379
 H          0.2641605403       -0.1687109095        1.6589089542
 H          0.1524163505       -1.9191825183       -0.5411768207
 H          3.2268782363        1.5427814298       -0.7815599978
  13
  -2.39104791000000       0.117595488181899      !
 C         -1.8282790141        1.1658195810        0.5925070664
 C         -0.9798499615        0.1444876584       -0.0798634151
 O         -1.2763793283       -0.3524100640       -1.1293010976
 C          0.3181860677       -0.3036641334        0.5678456778
 O          0.4199919043       -1.7126029464        0.3954325284
 C          1.4426695305        0.4212669630        0.0662546806
 C          2.3985809711        1.0082723743       -0.3891589702
 H         -1.2285263962        2.0009554192        0.9537822147
 H         -2.3619773150        0.7299766915        1.4372039193
 H         -2.5665627572        1.5550577567       -0.1084370562
 H          0.2566707514       -0.1425241205        1.6559806102
 H          0.1513523234       -1.9182894772       -0.5253730856
 H          3.2404540127        1.5236903065       -0.7916666333
  13
  -2.39104106000000       0.116746163391274      !
 C         -1.8235563117        1.1748476491        0.5850896065
 C         -0.9811285646        0.1401974357       -0.0731420411
 O         -1.2747381301       -0.3514418504       -1.1262321908
 C          0.3189529508       -0.3095205479        0.5713120835
 O          0.4224648963       -1.7171411036        0.3914120390
 C          1.4401624192        0.4195784400        0.0686758681
 C          2.3908091864        1.0128798814       -0.3893192933
 H         -2.8637719876        1.0508352463        0.2855351132
 H         -1.5050545212        2.1744010409        0.2903899678
 H         -1.7719450854        1.1004981056        1.6712576928
 H          0.2622842388       -0.1541563475        1.6603141317
 H          0.1512348360       -1.9192487572       -0.5293127835
 H          3.2256630662        1.5317503340       -0.8015415012
  13
  -2.39103180000000       0.115607767863505      !
 C         -1.8261926953        1.1720991539        0.5867188768
 C         -0.9820829035        0.1400457912       -0.0733435456
 O         -1.2735720669       -0.3498075425       -1.1275524475
 C          0.3185833119       -0.3076332310        0.5710089024
 O          0.4225566547       -1.7153596326        0.3925225096
 C          1.4402437863        0.4201904317        0.0677292845
 C          2.3930578269        1.0101032187       -0.3900630732
 H         -1.8146173912        1.0622356428        1.6707412904
 H         -2.8574482978        1.0794472354        0.2473884957
 H         -1.4775757541        2.1735217422        0.3356726196
 H          0.2620161589       -0.1508392448        1.6598217009
 H          0.1516134515       -1.9183591136       -0.5279018112
 H          3.2338840075        1.5217168535       -0.7990077812
  13
  -2.38929691000000       1.843685225387821E-002 !
 C         -1.3066787558        1.5279387641       -0.0742406238
 C         -1.0219556538        0.0680955212       -0.0139426467
 O         -1.8557368558       -0.7444162751       -0.3011181039
 C          0.3459745040       -0.4430393541        0.4221058812
 O          0.5726663794       -1.7067525080       -0.2012633454
 C          1.4232085726        0.4781625732        0.2284534694
 C          2.3519499076        1.2320350730        0.0430878992
 H         -1.1403701571        1.9076632003       -1.0819686040
 H         -0.6757313703        2.0870519885        0.6161692144
 H         -2.3477039555        1.7146575803        0.1882386280
 H          0.2879452455       -0.6565171916        1.5031697308
 H         -0.2916713274       -2.1513672396       -0.3412328876
 H          3.1745536660        1.8886662509       -0.1246724171
  13
  -2.38928694000000       1.824336220219564E-002 !
 C         -1.2962937775        1.5268254414       -0.1068435137
 C         -1.0221276757        0.0669679226       -0.0088026438
 O         -1.8674110362       -0.7460934065       -0.2579346181
 C          0.3480212893       -0.4466989995        0.4167784110
 O          0.5727858889       -1.7021663134       -0.2232917418
 C          1.4246986215        0.4769854917        0.2328657839
 C          2.3502925984        1.2363057586        0.0545640622
 H         -2.3275406712        1.7313380182        0.1790565922
 H         -1.1559432606        1.8727842026       -1.1304526025
 H         -0.6410744499        2.1018617517        0.5469533716
 H          0.2929334373       -0.6741205545        1.4951349929
 H         -0.2908746031       -2.1518950740       -0.3511276692
 H          3.1688377088        1.8974577278       -0.1142586323
  13
  -2.38925752000000       1.768415793155466E-002 !
 C         -1.2950753730        1.5284074417       -0.0881626986
 C         -1.0221110365        0.0665608273       -0.0138051878
 O         -1.8620810496       -0.7455703582       -0.2837177584
 C          0.3453902888       -0.4454253634        0.4199834329
 O          0.5729708934       -1.7053023303       -0.2101721508
 C          1.4216846312        0.4779408681        0.2331650840
 C          2.3471212474        1.2356054909        0.0474239090
 H         -0.8492600570        2.0574210353        0.7534336622
 H         -2.3697856891        1.7063301438       -0.0716003501
 H         -0.8982060005        1.9480350398       -1.0120263198
 H          0.2868227094       -0.6651018645        1.4996348886
 H         -0.2902734085       -2.1527814662       -0.3461294923
 H          3.1698387819        1.8927827742       -0.1166601250
  13
  -2.38925037000000       1.755086284336006E-002 !
 C         -1.3490227434        1.5236584107        0.0318468219
 C         -1.0182783807        0.0739340967       -0.0299257166
 O         -1.8086638752       -0.7281809821       -0.4414649102
 C          0.3406838392       -0.4312553021        0.4415685514
 O          0.5682985397       -1.7231919808       -0.1233815414
 C          1.4237011499        0.4753227685        0.2142286899
 C          2.3537398487        1.2196863731       -0.0012389313
 H         -0.6681525943        2.0626724346        0.6898992993
 H         -2.3636406442        1.6588610986        0.4055179364
 H         -1.2950258157        1.9680297750       -0.9616877333
 H          0.2721838284       -0.5969108860        1.5302818519
 H         -0.2976985820       -2.1424789122       -0.3200097559
 H          3.1780842500        1.8652219905       -0.2006742580
  13
  -2.38915945000000       1.594096225060948E-002 !
 C         -1.2867246302        1.5247840493       -0.1262780298
 C         -1.0234203666        0.0640398545       -0.0122109223
 O         -1.8784215370       -0.7494078365       -0.2228696651
 C          0.3478391009       -0.4462284600        0.4054702531
 O          0.5733690988       -1.6983626953       -0.2370963021
 C          1.4213021773        0.4823690257        0.2296746328
 C          2.3554046660        1.2353256780        0.0697920381
 H         -2.3066673315        1.6906904186       -0.4658624516
 H         -0.6106395068        1.9903379951       -0.8424889539
 H         -1.1663949833        2.0190105025        0.8358478567
 H          0.2934897797       -0.6775794855        1.4816653433
 H         -0.2862532158       -2.1527754409       -0.3619504373
 H          3.1714237689        1.9011146214       -0.0958646962
  13
  -2.38915193000000       1.581461343257384E-002 !
 C         -1.2743930103        1.5219038577       -0.1712397699
 C         -1.0242078212        0.0631393669       -0.0042651990
 O         -1.8911451266       -0.7502442505       -0.1659722600
 C          0.3502727007       -0.4515693467        0.4014149641
 O          0.5726351371       -1.6902979771       -0.2687106654
 C          1.4242868267        0.4793585305        0.2392804796
 C          2.3520435523        1.2407188105        0.0800696160
 H         -1.2078872317        2.0405120845        0.7848617959
 H         -2.2738207458        1.6818417635       -0.5748495868
 H         -0.5568219268        1.9673157893       -0.8598901284
 H          0.3003484494       -0.7047599957        1.4745169223
 H         -0.2864124193       -2.1568359660       -0.3620297871
 H          3.1710942845        1.9082893062       -0.0601121569
  13
  -2.38909378000000       1.487081226421754E-002 !
 C         -1.3012547390        1.5270866715       -0.1057616929
 C         -1.0222664077        0.0668457975       -0.0174168017
 O         -1.8705856809       -0.7488270804       -0.2484872286
 C          0.3478245368       -0.4438028271        0.4105885198
 O          0.5743265160       -1.7005763656       -0.2260069262
 C          1.4263278374        0.4786936734        0.2319489619
 C          2.3567994241        1.2332659478        0.0581859574
 H         -1.5146871556        1.9395536244        0.8800565667
 H         -2.1709238957        1.6991636954       -0.7392297144
 H         -0.4589030839        2.0693226433       -0.5341274547
 H          0.2897491006       -0.6696918475        1.4892274473
 H         -0.2883853553       -2.1534395471       -0.3493687770
 H          3.1815889549        1.8903714108       -0.0968330548
  13
  -2.38800969000000       4.721950414403699E-003 !
 C         -1.8010697160       -0.5957523495       -0.8533216169
 C         -0.9792821035        0.2903049513        0.0114481914
 O         -1.3151130295        1.4186831280        0.2506710493
 C          0.3299911056       -0.2393558722        0.5846320928
 O          0.3296082967       -1.6713731583        0.6044312341
 C          1.4586046656        0.3327341404       -0.0768371063
 C          2.4094606786        0.8127803522       -0.6521366411
 H         -1.7813100659       -0.2449259412       -1.8845293569
 H         -2.8363602207       -0.5971149803       -0.5140309413
 H         -1.4272304563       -1.6195131540       -0.8269972238
 H          0.3597730754        0.0796297246        1.6403775498
 H          1.1925202826       -2.0039609106        0.9265976764
 H          3.2423487475        1.2387818936       -1.1629124830
  13
  -2.38800747000000       4.710870663006537E-003 !
 C         -1.7994373457       -0.5947596623       -0.8564161747
 C         -0.9800817712        0.2899614017        0.0116012878
 O         -1.3188489630        1.4163944578        0.2550708947
 C          0.3298485669       -0.2390667404        0.5841538546
 O          0.3308404113       -1.6711326345        0.6006467213
 C          1.4585812635        0.3352767988       -0.0750913899
 C          2.4112549396        0.8117810455       -0.6503077394
 H         -1.4188738625       -1.6161662530       -0.8391144870
 H         -1.7868495703       -0.2362802013       -1.8852338312
 H         -2.8333183772       -0.6055499129       -0.5123846582
 H          0.3585336095        0.0774402886        1.6407350233
 H          1.1951568428       -2.0033436305        0.9198073408
 H          3.2455109106        1.2397360273       -1.1569175852
  13
  -2.38800108000000       4.679123846185212E-003 !
 C         -1.7968442615       -0.5907605817       -0.8616562766
 C         -0.9792425035        0.2898647590        0.0125055395
 O         -1.3191418446        1.4147948939        0.2616844916
 C          0.3299299227       -0.2415841995        0.5844629935
 O          0.3304675626       -1.6737257457        0.5963957106
 C          1.4590040418        0.3344321221       -0.0727775483
 C          2.4082119454        0.8156389096       -0.6498074570
 H         -2.8144787646       -0.6605855794       -0.4789729221
 H         -1.3747608551       -1.5948833683       -0.9052073466
 H         -1.8404644757       -0.1874430686       -1.8729822689
 H          0.3578787613        0.0716469020        1.6420150487
 H          1.1934645958       -2.0073593946        0.9174714779
 H          3.2384407149        1.2486036171       -1.1584850373
