  38
         -8.25941432
 C          7.7386879431       -0.4192260883       -0.0216647644
 N          7.2484838890        0.7761258780       -0.0179789614
 C          5.8874844702        0.7621921773       -0.0064303006
 C          5.2949466866       -0.4736164586       -0.0021772480
 S          6.5460021221       -1.6794719351       -0.0106406748
 C          3.8875874131       -0.7300843182        0.0060577684
 C          3.2991515409       -1.9515820791        0.0138516684
 C          1.8552118815       -1.9740081158        0.0189587425
 C          1.2356427703       -0.7645520083        0.0149597305
 Se         2.5348023366        0.5968704852        0.0050343950
 C         -0.1669828464       -0.4705129621        0.0135512959
 C         -1.1394399387       -1.4524523024        0.0183045273
 N         -2.4643284972       -1.2678300110        0.0143320014
 C         -2.9463480609       -0.0251960330        0.0054766863
 C         -4.3853401081        0.1544205313        0.0011943314
 C         -4.9895034211        1.3946812318        0.0015717893
 C         -6.3864979910        1.5639072395       -0.0039418888
 C         -7.2310957669        0.4963747144       -0.0097440171
 C         -6.6709836325       -0.8041294212       -0.0101907148
 C         -7.2271109551       -2.0850785223       -0.0148962310
 O         -6.2405354909       -3.0172982901       -0.0119984654
 C         -5.0549094789       -2.3536439403       -0.0063094439
 C         -5.2695207205       -0.9791111426       -0.0055245565
 C         -2.0587415476        1.1094076952        0.0030531685
 N         -2.3725268410        2.3892854949       -0.0023816214
 S         -0.9862773923        3.2653383459       -0.0020085794
 N          0.0646759946        2.0053140827        0.0022292895
 C         -0.6318266332        0.8879989873        0.0053466945
 H          8.7972179497       -0.6066807607       -0.0308978274
 H          5.3214239676        1.6831986689       -0.0031755700
 H          3.8851739793       -2.8569535007        0.0156787419
 H          1.3063191400       -2.9017432519        0.0238536005
 H         -0.8219949463       -2.4807629646        0.0258883310
 H         -4.3657058213        2.2672062592        0.0058002682
 H         -6.7930793205        2.5616989109       -0.0038306458
 H         -8.2993114395        0.6202334467       -0.0160591239
 H         -8.2850972817       -2.3103675163       -0.0195626618
 H         -4.0827599612       -2.8254253844       -0.0020603490
