  15
  -2.59340617000000       0.119988010034374      !
 C         -2.7557930608        0.4077151780       -0.5902825436
 C         -1.7264993543        0.5785579384        0.5110923854
 C         -0.4849487098       -0.2134636710        0.2242629556
 O         -0.5693432385       -1.4119573014        0.0612870106
 N          0.7247659001        0.4555137985        0.1494058335
 C          1.9128686889       -0.2051927390       -0.1197329706
 N          3.0428051055        0.3498246560       -0.1999436774
 H         -2.3663837970        0.7597632681       -1.5467836462
 H         -3.6779127879        0.9537110126       -0.3820604251
 H         -3.0098021813       -0.6460846936       -0.7170770573
 H         -2.1337702565        0.2441931138        1.4719820823
 H         -1.4689703355        1.6351473667        0.6423381909
 H          0.7598886232        1.4590489510        0.2943217445
 H          1.8548584052       -1.2715863701       -0.2707075872
 H          3.1202219543        1.3232573810       -0.0645043795
  15
  -2.59340574000000       0.119933425055940      !
 C         -2.7629690491        0.4132220575        0.5894061895
 C         -1.7283059703        0.5688677373       -0.5092401125
 C         -0.4859538695       -0.2146531796       -0.2025061847
 O         -0.5711909580       -1.4060498535        0.0054322847
 N          0.7263921056        0.4526531823       -0.1676039039
 C          1.9166833077       -0.2033944892        0.1033362231
 N          3.0494228879        0.3501494576        0.1463311310
 H         -3.6866573337        0.9506113755        0.3665070018
 H         -2.3805729743        0.7844232829        1.5412241562
 H         -3.0122361123       -0.6392260611        0.7340117082
 H         -1.4727965723        1.6239964536       -0.6562602873
 H         -2.1295527067        0.2176934915       -1.4669494405
 H          0.7629151002        1.4493366338       -0.3518855839
 H          1.8579476004       -1.2636700052        0.2912792160
 H          3.1274106453        1.3183475062       -0.0220889161
  15
  -2.59339526000000       0.118610725379198      !
 C         -2.8162927478        0.3244250086       -0.5183050398
 C         -1.7095021573        0.6289736649        0.4738831045
 C         -0.4795218960       -0.1826231650        0.1893322269
 O         -0.5808748112       -1.3780700873        0.0134489887
 N          0.7431978556        0.4652959443        0.1431726055
 C          1.9243676744       -0.2136151041       -0.1111548298
 N          3.0654051688        0.3219365893       -0.1606152462
 H         -3.0638136141       -0.7384741179       -0.5010440728
 H         -2.5041393155        0.5624285379       -1.5364858076
 H         -3.7279014506        0.8864519111       -0.3063045346
 H         -2.0394677249        0.4093097394        1.4956401038
 H         -1.4586432876        1.6953406894        0.4588606655
 H          0.7938748271        1.4657272946        0.3042722106
 H          1.8504793189       -1.2771274021       -0.2768152360
 H          3.1572809806        1.2920942698       -0.0114487076
  15
  -2.59340164000000       0.119414209185054      !
 C         -2.7746192931        0.3843118795       -0.5693557309
 C         -1.7213290264        0.5923410266        0.5023062795
 C         -0.4833675365       -0.2044482152        0.2123742544
 O         -0.5723993702       -1.4022220871        0.0486337705
 N          0.7298934999        0.4585824853        0.1436313726
 C          1.9165769802       -0.2077387362       -0.1180979659
 N          3.0500110636        0.3417031983       -0.1856999435
 H         -3.6939804495        0.9333494831       -0.3570120705
 H         -3.0268630437       -0.6736788580       -0.6575851988
 H         -2.4085160076        0.7077198926       -1.5446812385
 H         -2.1059358088        0.2875028335        1.4821295861
 H         -1.4646607011        1.6532683701        0.5940957533
 H          0.7695780128        1.4613726452        0.2922432165
 H          1.8541696258       -1.2729841368       -0.2746551328
 H          3.1311530057        1.3141290671       -0.0463544334
  15
  -2.59339474000000       0.118545476438810      !
 C         -2.7380856700        0.4645762043        0.6028752315
 C         -1.7360052567        0.5328747610       -0.5338241097
 C         -0.4885224005       -0.2338070232       -0.2067889727
 O         -0.5666163521       -1.4191277690        0.0343172842
 N          0.7189612133        0.4425120557       -0.1865527952
 C          1.9125735090       -0.1961816654        0.1099303962
 N          3.0407143986        0.3666858032        0.1438147229
 H         -2.3262423852        0.9015784746        1.5137492359
 H         -2.9885015707       -0.5728287852        0.8305963881
 H         -3.6654775564        0.9904309348        0.3680203769
 H         -1.4812544975        1.5722634193       -0.7665055034
 H         -2.1668390156        0.1140314167       -1.4500383796
 H          0.7481002572        1.4351638457       -0.3918603622
 H          1.8603014291       -1.2512865167        0.3280824925
 H          3.1128473530        1.3301251881       -0.0515145752
  15
  -2.59339690000000       0.118816745838243      !
 C         -2.7522568256        0.4319981784        0.5970414502
 C         -1.7311327174        0.5561422624       -0.5182263980
 C         -0.4869685907       -0.2222593056       -0.2066089060
 O         -0.5704369104       -1.4111358952        0.0162246707
 N          0.7240017317        0.4482920649       -0.1787061293
 C          1.9147936417       -0.2003662687        0.1071823179
 N          3.0456852535        0.3568549919        0.1473239402
 H         -3.0027847356       -0.6158067928        0.7720864856
 H         -3.6772258834        0.9663543242        0.3717957738
 H         -2.3566224550        0.8266775775        1.5344465444
 H         -1.4753308109        1.6062930527       -0.6967257854
 H         -2.1450699972        0.1806022391       -1.4610455301
 H          0.7575924846        1.4440477812       -0.3704844792
 H          1.8587817859       -1.2591840802        0.3065205383
 H          3.1209497508        1.3231329458       -0.0324261080
  15
  -2.59336779000000       0.115212506229950      !
 C         -2.8493504328        0.2771464950       -0.4689786644
 C         -1.6997998958        0.6589171812        0.4448900785
 C         -0.4766158889       -0.1655974952        0.1663571717
 O         -0.5866854899       -1.3594806804       -0.0143851655
 N          0.7529114453        0.4702565456        0.1390292404
 C          1.9307163329       -0.2186292143       -0.1045086294
 N          3.0770920972        0.3065694423       -0.1368855553
 H         -3.7533313990        0.8523237646       -0.2595455665
 H         -3.0896024692       -0.7816924310       -0.3585466184
 H         -2.5847607395        0.4357277899       -1.5155693292
 H         -1.9809530644        0.5174939498        1.4945450781
 H         -1.4574766545        1.7216994682        0.3362351362
 H          0.8112719906        1.4686911721        0.3096477240
 H          1.8490029275       -1.2802890821       -0.2772453892
 H          3.1763911391        1.2747677192        0.0190785359
  15
  -2.59305249000000       8.252732658866782E-002 !
 C         -2.9619654079        0.0477301274        0.1395851456
 C         -1.6644280888        0.8203283395       -0.0170918094
 C         -0.4666263392       -0.0871834937       -0.0576699303
 O         -0.6037684784       -1.2861819153       -0.1778497701
 N          0.7833335114        0.4995999217        0.0332313160
 C          1.9511431534       -0.2462737813        0.0007007814
 N          3.1156542989        0.2335451560        0.0710150852
 H         -2.9578372119       -0.5323126541        1.0636674786
 H         -3.0856293932       -0.6634398661       -0.6787480979
 H         -3.8357586023        0.7020238298        0.1547733320
 H         -1.5420364012        1.5341775001        0.8053510471
 H         -1.6828255613        1.4175147895       -0.9358331290
 H          0.8615580313        1.5073798893        0.1215042952
 H          1.8449774442       -1.3155005150       -0.0934989463
 H          3.2386213199        1.2077707018        0.1564184940
  15
  -2.59302571000000       8.022145614072916E-002 !
 C         -2.9663745754        0.0680651214       -0.0831845063
 C         -1.6625968242        0.8028378506        0.1707138188
 C         -0.4662034029       -0.0945218658        0.0167106709
 O         -0.6051253653       -1.2873684430       -0.1506328186
 N          0.7848703118        0.4934936554        0.0822780255
 C          1.9525084704       -0.2423062377       -0.0457598789
 N          3.1166323455        0.2402072186        0.0114810632
 H         -3.8374529398        0.7157734627        0.0330674913
 H         -3.0742969716       -0.7719373853        0.6051438597
 H         -2.9853578591       -0.3469725565       -1.0922940773
 H         -1.6536258495        1.2307385572        1.1797026758
 H         -1.5605247341        1.6495277239       -0.5175889438
 H          0.8639336422        1.4943421252        0.2299395394
 H          1.8457590545       -1.3038448592       -0.2043771561
 H          3.2386359820        1.2073689764        0.1576901661
  15
  -2.59003017000000       3.370044794996159E-003 !
 C         -2.1525820546        1.3481018249       -0.4384590529
 C         -1.9729406737       -0.0458033114        0.1410030892
 C         -0.5499504424       -0.5309691959        0.2183870313
 O         -0.3488463840       -1.6747451430        0.5715746163
 N          0.5000965831        0.3139174564       -0.1020579515
 C          1.8181138676       -0.1105364957       -0.0390138231
 N          2.8185814503        0.6044409735       -0.3200452601
 H         -1.6513268454        2.0993413395        0.1733469571
 H         -3.2058903053        1.6296989578       -0.4977800271
 H         -1.7412844965        1.4118994211       -1.4469441727
 H         -2.5387207262       -0.7752138643       -0.4497358189
 H         -2.4001084718       -0.0968711784        1.1488337619
 H          0.3288568570        1.2697969158       -0.3926014096
 H          1.9885095230       -1.1284221511        0.2749451104
 H          2.6884141237        1.5376833152       -0.6100893824
  15
  -2.59002737000000       3.360074314037686E-003 !
 C         -2.1506200702        1.3552850588       -0.4219759383
 C         -1.9740375802       -0.0522355043        0.1245096391
 C         -0.5503509694       -0.5334698827        0.2128439748
 O         -0.3485005844       -1.6742978228        0.5745666766
 N          0.4995336854        0.3111878346       -0.1086028546
 C          1.8183417539       -0.1087116566       -0.0334412923
 N          2.8180575431        0.6062444091       -0.3173382886
 H         -3.2036491016        1.6372419670       -0.4820955002
 H         -1.7324525092        1.4443613134       -1.4256260793
 H         -1.6545392553        2.0914855664        0.2118995178
 H         -2.5276045249       -0.7690611988       -0.4927867425
 H         -2.4164181821       -0.1300335261        1.1241963195
 H          0.3278444357        1.2647386487       -0.4065725311
 H          1.9899966553       -1.1226783146        0.2924752929
 H          2.6866346064        1.5367324266       -0.6159040997
