  15
         -2.59340617
 C         -2.7557930608        0.4077151780       -0.5902825436
 C         -1.7264993543        0.5785579384        0.5110923854
 C         -0.4849487098       -0.2134636710        0.2242629556
 O         -0.5693432385       -1.4119573014        0.0612870106
 N          0.7247659001        0.4555137985        0.1494058335
 C          1.9128686889       -0.2051927390       -0.1197329706
 N          3.0428051055        0.3498246560       -0.1999436774
 H         -2.3663837970        0.7597632681       -1.5467836462
 H         -3.6779127879        0.9537110126       -0.3820604251
 H         -3.0098021813       -0.6460846936       -0.7170770573
 H         -2.1337702565        0.2441931138        1.4719820823
 H         -1.4689703355        1.6351473667        0.6423381909
 H          0.7598886232        1.4590489510        0.2943217445
 H          1.8548584052       -1.2715863701       -0.2707075872
 H          3.1202219543        1.3232573810       -0.0645043795
  15
         -2.59339474
 C         -2.7380856700        0.4645762043        0.6028752315
 C         -1.7360052567        0.5328747610       -0.5338241097
 C         -0.4885224005       -0.2338070232       -0.2067889727
 O         -0.5666163521       -1.4191277690        0.0343172842
 N          0.7189612133        0.4425120557       -0.1865527952
 C          1.9125735090       -0.1961816654        0.1099303962
 N          3.0407143986        0.3666858032        0.1438147229
 H         -2.3262423852        0.9015784746        1.5137492359
 H         -2.9885015707       -0.5728287852        0.8305963881
 H         -3.6654775564        0.9904309348        0.3680203769
 H         -1.4812544975        1.5722634193       -0.7665055034
 H         -2.1668390156        0.1140314167       -1.4500383796
 H          0.7481002572        1.4351638457       -0.3918603622
 H          1.8603014291       -1.2512865167        0.3280824925
 H          3.1128473530        1.3301251881       -0.0515145752
  15
         -2.59339690
 C         -2.7522568256        0.4319981784        0.5970414502
 C         -1.7311327174        0.5561422624       -0.5182263980
 C         -0.4869685907       -0.2222593056       -0.2066089060
 O         -0.5704369104       -1.4111358952        0.0162246707
 N          0.7240017317        0.4482920649       -0.1787061293
 C          1.9147936417       -0.2003662687        0.1071823179
 N          3.0456852535        0.3568549919        0.1473239402
 H         -3.0027847356       -0.6158067928        0.7720864856
 H         -3.6772258834        0.9663543242        0.3717957738
 H         -2.3566224550        0.8266775775        1.5344465444
 H         -1.4753308109        1.6062930527       -0.6967257854
 H         -2.1450699972        0.1806022391       -1.4610455301
 H          0.7575924846        1.4440477812       -0.3704844792
 H          1.8587817859       -1.2591840802        0.3065205383
 H          3.1209497508        1.3231329458       -0.0324261080
  15
         -2.59336779
 C         -2.8493504328        0.2771464950       -0.4689786644
 C         -1.6997998958        0.6589171812        0.4448900785
 C         -0.4766158889       -0.1655974952        0.1663571717
 O         -0.5866854899       -1.3594806804       -0.0143851655
 N          0.7529114453        0.4702565456        0.1390292404
 C          1.9307163329       -0.2186292143       -0.1045086294
 N          3.0770920972        0.3065694423       -0.1368855553
 H         -3.7533313990        0.8523237646       -0.2595455665
 H         -3.0896024692       -0.7816924310       -0.3585466184
 H         -2.5847607395        0.4357277899       -1.5155693292
 H         -1.9809530644        0.5174939498        1.4945450781
 H         -1.4574766545        1.7216994682        0.3362351362
 H          0.8112719906        1.4686911721        0.3096477240
 H          1.8490029275       -1.2802890821       -0.2772453892
 H          3.1763911391        1.2747677192        0.0190785359
  15
         -2.59305249
 C         -2.9619654079        0.0477301274        0.1395851456
 C         -1.6644280888        0.8203283395       -0.0170918094
 C         -0.4666263392       -0.0871834937       -0.0576699303
 O         -0.6037684784       -1.2861819153       -0.1778497701
 N          0.7833335114        0.4995999217        0.0332313160
 C          1.9511431534       -0.2462737813        0.0007007814
 N          3.1156542989        0.2335451560        0.0710150852
 H         -2.9578372119       -0.5323126541        1.0636674786
 H         -3.0856293932       -0.6634398661       -0.6787480979
 H         -3.8357586023        0.7020238298        0.1547733320
 H         -1.5420364012        1.5341775001        0.8053510471
 H         -1.6828255613        1.4175147895       -0.9358331290
 H          0.8615580313        1.5073798893        0.1215042952
 H          1.8449774442       -1.3155005150       -0.0934989463
 H          3.2386213199        1.2077707018        0.1564184940
  15
         -2.59003017
 C         -2.1525820546        1.3481018249       -0.4384590529
 C         -1.9729406737       -0.0458033114        0.1410030892
 C         -0.5499504424       -0.5309691959        0.2183870313
 O         -0.3488463840       -1.6747451430        0.5715746163
 N          0.5000965831        0.3139174564       -0.1020579515
 C          1.8181138676       -0.1105364957       -0.0390138231
 N          2.8185814503        0.6044409735       -0.3200452601
 H         -1.6513268454        2.0993413395        0.1733469571
 H         -3.2058903053        1.6296989578       -0.4977800271
 H         -1.7412844965        1.4118994211       -1.4469441727
 H         -2.5387207262       -0.7752138643       -0.4497358189
 H         -2.4001084718       -0.0968711784        1.1488337619
 H          0.3288568570        1.2697969158       -0.3926014096
 H          1.9885095230       -1.1284221511        0.2749451104
 H          2.6884141237        1.5376833152       -0.6100893824
