  15
         -2.59340617
 C         -2.7557930608        0.4077151780       -0.5902825436
 C         -1.7264993543        0.5785579384        0.5110923854
 C         -0.4849487098       -0.2134636710        0.2242629556
 O         -0.5693432385       -1.4119573014        0.0612870106
 N          0.7247659001        0.4555137985        0.1494058335
 C          1.9128686889       -0.2051927390       -0.1197329706
 N          3.0428051055        0.3498246560       -0.1999436774
 H         -2.3663837970        0.7597632681       -1.5467836462
 H         -3.6779127879        0.9537110126       -0.3820604251
 H         -3.0098021813       -0.6460846936       -0.7170770573
 H         -2.1337702565        0.2441931138        1.4719820823
 H         -1.4689703355        1.6351473667        0.6423381909
 H          0.7598886232        1.4590489510        0.2943217445
 H          1.8548584052       -1.2715863701       -0.2707075872
 H          3.1202219543        1.3232573810       -0.0645043795
