  13
         -2.39115632
 C         -1.8262933503       -1.1743897739       -0.5804044222
 C         -0.9799858415       -0.1428187267        0.0761263797
 O         -1.2830938075        0.3583466083        1.1215362309
 C          0.3200914790        0.3099033330       -0.5681572312
 O          0.4253598798        1.7166945530       -0.3820124865
 C          1.4423277340       -0.4228194481       -0.0731457781
 C          2.3965206738       -1.0168264244        0.3763832440
 H         -2.7532191862       -0.7293373401       -0.9407317818
 H         -2.0848421863       -1.9560337480        0.1331455547
 H         -1.3146260228       -1.6369135219       -1.4242221138
 H          0.2593251523        0.1615823991       -1.6580343381
 H          0.1533643430        1.9161402893        0.5390040313
 H          3.2366583460       -1.5351652736        0.7779611141
  13
         -2.39103984
 C         -1.8237172008       -1.1737796654       -0.5833306680
 C         -0.9821790636       -0.1384653476        0.0743914685
 O         -1.2740563688        0.3513290318        1.1286085932
 C          0.3177626451        0.3111710678       -0.5710564417
 O          0.4253739474        1.7178442036       -0.3869223973
 C          1.4386914128       -0.4222742066       -0.0741066795
 C          2.3901268400       -1.0157637275        0.3822398670
 H         -1.5016803129       -2.1732980396       -0.2921671810
 H         -1.7756647106       -1.0968149299       -1.6693611874
 H         -2.8634528926       -1.0533651119       -0.2800517180
 H          0.2579774031        0.1599781280       -1.6604525033
 H          0.1534543500        1.9192116427        0.5339692878
 H          3.2250569075       -1.5357075182        0.7926126214
  13
         -2.38928341
 C         -1.3178448365       -1.5268572048        0.0481492797
 C         -1.0208712177       -0.0687166443        0.0192403846
 O         -1.8442181020        0.7422889401        0.3384251165
 C          0.3446250309        0.4411430312       -0.4264323585
 O          0.5739473861        1.7100702204        0.1858172827
 C          1.4231517265       -0.4778360925       -0.2293923155
 C          2.3506716534       -1.2318393461       -0.0381073919
 H         -2.3397871921       -1.7049819729       -0.2856388759
 H         -1.2227014073       -1.9140898449        1.0623677237
 H         -0.6443642600       -2.0859252465       -0.6014628218
 H          0.2819131034        0.6462238663       -1.5087654616
 H         -0.2907262226        2.1492223008        0.3405369984
 H          3.1716365887       -1.8886114793        0.1374249422
  13
         -2.38920337
 C         -1.2715117283       -1.5231570359        0.1598449493
 C         -1.0226540897       -0.0628310938        0.0068089641
 O         -1.8865539687        0.7490798955        0.1888052893
 C          0.3497892744        0.4538011457       -0.4044036042
 O          0.5733110095        1.6964574451        0.2592479290
 C          1.4231983052       -0.4775270984       -0.2405908518
 C          2.3431491358       -1.2480001699       -0.0810789801
 H         -2.3230152357       -1.6974432132        0.3866647308
 H         -0.6775772496       -1.9361706106        0.9748198761
 H         -1.0278728493       -2.0609666747       -0.7565121599
 H          0.2982931613        0.7021308077       -1.4785725424
 H         -0.2890525185        2.1526270416        0.3750422981
 H          3.1539899017       -1.9262223773        0.0525546752
  13
         -2.38911834
 C         -1.2947965332       -1.5264313139        0.1126077685
 C         -1.0216992682       -0.0655591517        0.0196443085
 O         -1.8716678464        0.7500262123        0.2443610799
 C          0.3470853352        0.4466239946       -0.4104385267
 O          0.5752230573        1.6989649692        0.2338630642
 C          1.4258038110       -0.4781316396       -0.2426516699
 C          2.3498668694       -1.2389510801       -0.0613637627
 H         -2.2226994059       -1.6955552815        0.6584942384
 H         -0.4950536816       -2.0463509004        0.6384575775
 H         -1.4015115314       -1.9646985834       -0.8796143468
 H          0.2868562797        0.6805291473       -1.4878515221
 H         -0.2879609746        2.1556226482        0.3528121252
 H          3.1757014253       -1.8939940495        0.0642620547
  13
         -2.38891671
 C         -1.4193177346       -1.4987243139       -0.1579640555
 C         -1.0161987868       -0.0827836689        0.0572960245
 O         -1.7469441890        0.7045052848        0.5897619192
 C          0.3337871081        0.4078841270       -0.4523707906
 O          0.5619758045        1.7335831777        0.0355699679
 C          1.4211937344       -0.4819506557       -0.1841541291
 C          2.3788337085       -1.1910442595        0.0379046119
 H         -0.5742312848       -2.1771392941       -0.0470372558
 H         -1.8459869204       -1.6312822666       -1.1525553985
 H         -2.1793897874       -1.7805782945        0.5704750847
 H          0.2563718577        0.5137145430       -1.5479024347
 H         -0.2962740643        2.1200527187        0.3273513521
 H          3.2118269630       -1.8247887274        0.2563502794
  13
         -2.38800847
 C         -1.7934068360        0.5933989265        0.8646834599
 C         -0.9800419835       -0.2895822799       -0.0111625225
 O         -1.3220237919       -1.4146208484       -0.2575776152
 C          0.3291655708        0.2388082911       -0.5854457938
 O          0.3300371226        1.6709190252       -0.6041349572
 C          1.4582621338       -0.3346675868        0.0740392565
 C          2.4098379066       -0.8125632659        0.6497772342
 H         -1.7466202207        0.2517091544        1.8981523127
 H         -2.8358744454        0.5792055385        0.5483295770
 H         -1.4329285195        1.6213934098        0.8216779625
 H          0.3571409184       -0.0791918243       -1.6415669854
 H          1.1938251325        2.0028492551       -0.9246866099
 H          3.2442553949       -1.2397259687        1.1568735466
