13
 energy: -21.811538315508 gnorm: 0.000088339740 xtb: 6.7.0 (08769fc)
C           -1.61775766658108       -1.28162691826335       -0.46153023203357
C           -1.03744403008668       -0.02257460775396        0.09991609264243
O           -1.49068458667119        0.59031211751535        1.03661749426660
C            0.24092212198640        0.48966912625231       -0.58373349779512
O            0.52657017102675        1.80460105099067       -0.17711344361007
C            1.30857846502135       -0.44430330389119       -0.22178235223439
C            2.19595511844477       -1.16319919728539        0.13713137111772
H           -2.12291273252392       -1.04312002783491       -1.39758222194617
H           -2.34254363083202       -1.70309291696435        0.23063289236377
H           -0.83076834698995       -2.00117277935872       -0.67557385879344
H            0.11734220306152        0.48928055989481       -1.67544738800219
H            0.06749530918923        1.93986487943433        0.66835397537789
H            2.97683481825497       -1.80627505673587        0.41755957164641
