  38
  -8.2003470299999996       0.37283141047831952      !mtd2
 C          7.6927002417        0.4761601790        0.1888392892
 N          7.3338761569        1.7112836601        0.3210460641
 C          5.9761855401        1.8554001188        0.3007161063
 C          5.2514043142        0.7037262926        0.1465131462
 S          6.3546518844       -0.6168703488        0.0277655127
 C          3.8198083017        0.5757003791        0.0883555146
 N          3.0626372286        1.6600049190        0.2043484229
 C          1.7297011168        1.5125541547        0.1445162440
 C          1.0244830573        0.3408989065       -0.0400705596
 C         -0.4142922112        0.2696739184       -0.0728368022
 S         -1.2421016181       -1.2624178492       -0.0372758998
 C         -2.8451240263       -0.5744494994        0.0221060837
 C         -4.0782833116       -1.3441008430        0.1212183488
 C         -5.3326867957       -0.7330461996        0.1491860841
 C         -6.4823407078       -1.4821598029        0.2438332692
 C         -6.4077746600       -2.8584083796        0.3132810203
 C         -5.1778854973       -3.4839098494        0.2884405008
 C         -4.0266341333       -2.7354796693        0.1934013462
 C         -2.7135989714        0.7844609881       -0.0492805110
 Se        -3.9320506764        2.2330942282       -0.0717319793
 C         -2.4516799552        3.3972937829       -0.2363483067
 C         -1.2876314377        2.7480102453       -0.2424344077
 C         -1.3733846564        1.2782725130       -0.1209532509
 C          1.8082005519       -0.8582329564       -0.1448545100
 N          1.4067363653       -2.1029400726       -0.2814708221
 S          2.7363314266       -3.0675687977       -0.3416887489
 N          3.8669199449       -1.8883934558       -0.1793167344
 C          3.2428806429       -0.7313461965       -0.0805100722
 H          8.7223689965        0.1684544003        0.1814183880
 H          5.5124769428        2.8278935603        0.3957002871
 H          1.1745490715        2.4171508506        0.2990935812
 H         -5.3958613170        0.3373826741        0.0948854447
 H         -7.4425859433       -0.9936227506        0.2631116937
 H         -7.3090786300       -3.4444250133        0.3866902390
 H         -5.1186361090       -4.5582949087        0.3441601257
 H         -3.0660162459       -3.2196080583        0.1735173599
 H         -2.5609821899        4.4608959542       -0.3309699657
 H         -0.3549635135        3.2673248189       -0.3712495855
  38
  -8.2003442199999999       0.37172443265492239      !mtd1
 C          7.6904327025        0.4726589239        0.2240178701
 N          7.3307314375        1.7070960361        0.3600083394
 C          5.9736997931        1.8526015080        0.3206352037
 C          5.2497342829        0.7026792268        0.1509671575
 S          6.3541849257       -0.6180105320        0.0353573746
 C          3.8187841830        0.5750902059        0.0795673111
 N          3.0607724795        1.6584266275        0.1999828363
 C          1.7278716695        1.5114988994        0.1363203577
 C          1.0239024427        0.3409118894       -0.0597867613
 C         -0.4148668363        0.2689283472       -0.0868034876
 S         -1.2422013930       -1.2632238112       -0.0568558771
 C         -2.8445056910       -0.5751155792        0.0220769358
 C         -4.0772863025       -1.3446377004        0.1255014063
 C         -4.0313667832       -2.7380342568        0.1207271914
 C         -5.1826823123       -3.4855536461        0.2217189982
 C         -6.4069867846       -2.8579530158        0.3307669103
 C         -6.4757385630       -1.4795817968        0.3384295956
 C         -5.3260520607       -0.7313896947        0.2373417334
 C         -2.7134990499        0.7842948636       -0.0399401264
 Se        -3.9306667855        2.2342334934       -0.0469274574
 C         -2.4517570516        3.3971541788       -0.2345138088
 C         -1.2882730110        2.7470520396       -0.2508689037
 C         -1.3738511395        1.2780313159       -0.1229270416
 C          1.8081796896       -0.8569658643       -0.1743980178
 N          1.4070964577       -2.1007786123       -0.3201499376
 S          2.7376415426       -3.0642505393       -0.3851017454
 N          3.8674793012       -1.8855147342       -0.2149114870
 C          3.2425012891       -0.7299263530       -0.1047330954
 H          8.7199739205        0.1641179708        0.2291561717
 H          5.5096437511        2.8243188578        0.4220166733
 H          1.1722644737        2.4147689262        0.2976495805
 H         -3.0751777847       -3.2240915337        0.0366790301
 H         -5.1284375986       -4.5616351776        0.2167377663
 H         -7.3082828985       -3.4431829381        0.4103575953
 H         -7.4315116967       -0.9894571743        0.4243305911
 H         -5.3840991604        0.3407107980        0.2460741665
 H         -2.5623586527        4.4602855007       -0.3325397254
 H         -0.3567657949        3.2650292807       -0.3937159353
  38
  -8.1990447999999994        9.3982939057719345E-002 !mtd6
 C          7.6762599998       -0.3697557801        0.6878172396
 N          7.2735295277       -1.4322402859        1.3048625451
 C          5.9129522320       -1.5474625746        1.2921997662
 C          5.2300786518       -0.5503942643        0.6477854559
 S          6.3797977470        0.5804052822        0.0349201942
 C          3.8047653151       -0.4331223443        0.4895041250
 N          3.0155840337       -1.3687630215        0.9989643150
 C          1.6933289422       -1.2270521385        0.8289951342
 C          1.0153226185       -0.2096991441        0.1860363704
 C         -0.4275542691       -0.2698228791        0.1300021755
 S         -1.2759700696       -1.6525195131        0.7866395650
 C         -2.8694439130       -1.0610860131        0.3879839917
 C         -4.1138736028       -1.7649701478        0.6706203255
 C         -5.3569196889       -1.2535152506        0.2947047610
 C         -6.5177601077       -1.9387740304        0.5681009750
 C         -6.4664770197       -3.1515610064        1.2245624693
 C         -5.2485698280       -3.6760513608        1.6069673473
 C         -4.0862821685       -2.9913691001        1.3331604039
 C         -2.7230471566        0.1536765623       -0.2193425124
 Se        -3.9259610826        1.4365682575       -0.9251366513
 C         -2.4321577366        2.5073976873       -1.3656871283
 C         -1.2814728560        1.9326938146       -1.0202808334
 C         -1.3787561678        0.6125298399       -0.3745557040
 C          1.8383476053        0.8246098729       -0.3833977398
 N          1.5029213182        1.9014688324       -1.0555102613
 S          2.8689406911        2.7138476302       -1.4645610892
 N          3.9436748892        1.6839436440       -0.7785627294
 C          3.2695873843        0.6963963137       -0.2230942305
 H          8.7157001202       -0.1123304933        0.5953447609
 H          5.4148866715       -2.3803090449        1.7699327641
 H          1.0983743515       -2.0151465160        1.2566091051
 H         -5.4026628971       -0.3112234773       -0.2178661655
 H         -7.4682608015       -1.5288954317        0.2685707550
 H         -7.3760711489       -3.6884399938        1.4379845648
 H         -5.2072464747       -4.6225090268        2.1203510956
 H         -3.1354188129       -3.3982297663        1.6295047318
 H         -2.5214500251        3.4650250298       -1.8422946338
 H         -0.3310598872        2.3949039088       -1.1997626428
  38
  -8.1990378800000006        9.3297243049612552E-002 !mtd4
 C          7.6772626067       -0.4147046533        0.6314153276
 N          7.2818090752       -1.5697789711        1.0571900770
 C          5.9219735032       -1.6897789628        1.0245232158
 C          5.2324761755       -0.6009164788        0.5611469908
 S          6.3744205505        0.6252565651        0.1501007528
 C          3.8061792806       -0.4676787522        0.4271159156
 N          3.0245243083       -1.4783259166        0.7812644153
 C          1.7010340848       -1.3185871275        0.6411241818
 C          1.0155773493       -0.2199228017        0.1603314385
 C         -0.4267330841       -0.2809787331        0.0974273148
 S         -1.2736932458       -1.6807573348        0.7185396118
 C         -2.8665821331       -1.0854909128        0.3265514801
 C         -4.1087306005       -1.7984381659        0.5956084555
 C         -4.0759212025       -3.0409258589        1.2274544654
 C         -5.2360204219       -3.7319883432        1.4942313405
 C         -6.4566244641       -3.1974274656        1.1353423773
 C         -6.5128821357       -1.9691333533        0.5085120922
 C         -5.3542427036       -1.2775514598        0.2415914594
 C         -2.7211930206        0.1378268063       -0.2639933013
 Se        -3.9219962638        1.4124880982       -0.9876172000
 C         -2.4275649473        2.4842289763       -1.4249804408
 C         -1.2785775927        1.9196973830       -1.0578018867
 C         -1.3777704574        0.6059858128       -0.3992998877
 C          1.8297775269        0.9005518373       -0.2308053893
 N          1.4843010378        2.0736764300       -0.7088916554
 S          2.8435401018        2.9555840071       -0.9719417547
 N          3.9271081677        1.8345103929       -0.4648320346
 C          3.2614534771        0.7617024245       -0.0852341054
 H          8.7145439623       -0.1375700608        0.5845568333
 H          5.4298642271       -2.5963024517        1.3501202527
 H          1.1118037399       -2.1664486813        0.9442705545
 H         -3.1227537608       -3.4546974082        1.5063760845
 H         -5.1908201905       -4.6907626501        1.9839375812
 H         -7.3647183447       -3.7385749513        1.3444046325
 H         -7.4657995155       -1.5516994300        0.2277659990
 H         -5.4033661801       -0.3227974775       -0.2470874767
 H         -2.5171328029        3.4372023135       -1.9107235277
 H         -0.3285591982        2.3888680832       -1.2210985147
  38
  -8.1980936199999999        3.4349226392454787E-002 !mtd5
 C          7.6156338481        1.2592331914        0.3214341620
 N          7.4931703575       -0.0164368836        0.1610978699
 C          6.1861496837       -0.3814757754        0.0652770899
 C          5.2610648719        0.6238467985        0.1489113383
 S          6.1061565949        2.1216998015        0.3649066699
 C          3.8305599667        0.4754316466        0.0720549020
 N          3.0666371014        1.5551100133        0.1820251066
 C          1.7338966371        1.4071397941        0.1128854620
 C          1.0322714555        0.2349911854       -0.0758728299
 C         -0.4062841011        0.1604825531       -0.1055703144
 S         -1.2329490344       -1.3720657476       -0.0639003621
 C         -2.8359169214       -0.6847966534        0.0045630657
 C         -4.0685166867       -1.4539198585        0.1143175541
 C         -5.3206005335       -0.8411250948        0.1810736046
 C         -6.4701451630       -1.5887660423        0.2886644745
 C         -6.3978294448       -2.9662508582        0.3323896244
 C         -5.1703037040       -3.5935013440        0.2680112549
 C         -4.0191774768       -2.8465118610        0.1607039341
 C         -2.7058677990        0.6740878555       -0.0697775295
 Se        -3.9236306026        2.1236550641       -0.0793760966
 C         -2.4451270140        3.2870240388       -0.2626698933
 C         -1.2811352777        2.6377287930       -0.2770620733
 C         -1.3662110905        1.1684421734       -0.1505445749
 C          1.8203332449       -0.9612556467       -0.1784919492
 N          1.4199863631       -2.2058211694       -0.3195571161
 S          2.7517726791       -3.1669877976       -0.3784916138
 N          3.8813883673       -1.9875299258       -0.2077910083
 C          3.2554131694       -0.8325034889       -0.1038130392
 H          8.5734068164        1.7377933213        0.4191332783
 H          5.8998294817       -1.4124157029       -0.0689351932
 H          1.1785793006        2.3124640840        0.2625187882
 H         -5.3821621258        0.2303377964        0.1488527476
 H         -7.4283265259       -1.0984602863        0.3391238003
 H         -7.2987375288       -3.5513873894        0.4172727394
 H         -5.1126286785       -4.6688872897        0.3030942458
 H         -3.0604503662       -3.3322911910        0.1119261184
 H         -2.5556237521        4.3503101737       -0.3595614738
 H         -0.3501867874        3.1571687114       -0.4175768580
  38
  -8.1980787999999993        3.3814748366971556E-002 !mtd5
 C          7.6089904766        1.2653998863        0.3554651403
 N          7.4912246147       -0.0061696173        0.1602500202
 C          6.1859519631       -0.3729306282        0.0501488332
 C          5.2572662945        0.6261881356        0.1605200430
 S          6.0964362652        2.1208159165        0.4184026456
 C          3.8272983783        0.4741712020        0.0794490627
 N          3.0596121797        1.5472580203        0.2224598403
 C          1.7274178214        1.3957414529        0.1529778148
 C          1.0313641059        0.2261936210       -0.0704267344
 C         -0.4067948704        0.1501933951       -0.1038953958
 S         -1.2368478100       -1.3803084425       -0.0734908854
 C         -2.8376795056       -0.6882707859        0.0108850886
 C         -4.0724664707       -1.4531100857        0.1255949423
 C         -4.0315814094       -2.8466458395        0.1363553625
 C         -5.1859433621       -3.5889078432        0.2444309485
 C         -6.4079198269       -2.9554626109        0.3446357091
 C         -6.4718460766       -1.5770193886        0.3372959204
 C         -5.3190765443       -0.8342393088        0.2294442264
 C         -2.7043789481        0.6706970694       -0.0599785652
 Se        -3.9166080558        2.1252538245       -0.0707828637
 C         -2.4340218217        3.2820340870       -0.2710722375
 C         -1.2727910934        2.6280716149       -0.2863505680
 C         -1.3637599792        1.1605107489       -0.1473617062
 C          1.8226948849       -0.9640568825       -0.2066874884
 N          1.4265607826       -2.2072733602       -0.3695707342
 S          2.7618535285       -3.1617270775       -0.4535210760
 N          3.8872116197       -1.9808769879       -0.2660277270
 C          3.2574855639       -0.8302668457       -0.1369105652
 H          8.5645327613        1.7450060541        0.4684484943
 H          5.9034173357       -1.4010847077       -0.1119804742
 H          1.1658768055        2.2911134671        0.3383330216
 H         -3.0770673249       -3.3371145368        0.0593826231
 H         -5.1356876666       -4.6651622682        0.2509606552
 H         -7.3114059982       -3.5369381295        0.4290294550
 H         -7.4257471653       -1.0821890022        0.4164452724
 H         -5.3731543962        0.2380213841        0.2247951995
 H         -2.5406587426        4.3447115845       -0.3782448868
 H         -0.3388195817        3.1394412183       -0.4385756006
