  38
         -8.20034703
 C          7.6927002417        0.4761601790        0.1888392892
 N          7.3338761569        1.7112836601        0.3210460641
 C          5.9761855401        1.8554001188        0.3007161063
 C          5.2514043142        0.7037262926        0.1465131462
 S          6.3546518844       -0.6168703488        0.0277655127
 C          3.8198083017        0.5757003791        0.0883555146
 N          3.0626372286        1.6600049190        0.2043484229
 C          1.7297011168        1.5125541547        0.1445162440
 C          1.0244830573        0.3408989065       -0.0400705596
 C         -0.4142922112        0.2696739184       -0.0728368022
 S         -1.2421016181       -1.2624178492       -0.0372758998
 C         -2.8451240263       -0.5744494994        0.0221060837
 C         -4.0782833116       -1.3441008430        0.1212183488
 C         -5.3326867957       -0.7330461996        0.1491860841
 C         -6.4823407078       -1.4821598029        0.2438332692
 C         -6.4077746600       -2.8584083796        0.3132810203
 C         -5.1778854973       -3.4839098494        0.2884405008
 C         -4.0266341333       -2.7354796693        0.1934013462
 C         -2.7135989714        0.7844609881       -0.0492805110
 Se        -3.9320506764        2.2330942282       -0.0717319793
 C         -2.4516799552        3.3972937829       -0.2363483067
 C         -1.2876314377        2.7480102453       -0.2424344077
 C         -1.3733846564        1.2782725130       -0.1209532509
 C          1.8082005519       -0.8582329564       -0.1448545100
 N          1.4067363653       -2.1029400726       -0.2814708221
 S          2.7363314266       -3.0675687977       -0.3416887489
 N          3.8669199449       -1.8883934558       -0.1793167344
 C          3.2428806429       -0.7313461965       -0.0805100722
 H          8.7223689965        0.1684544003        0.1814183880
 H          5.5124769428        2.8278935603        0.3957002871
 H          1.1745490715        2.4171508506        0.2990935812
 H         -5.3958613170        0.3373826741        0.0948854447
 H         -7.4425859433       -0.9936227506        0.2631116937
 H         -7.3090786300       -3.4444250133        0.3866902390
 H         -5.1186361090       -4.5582949087        0.3441601257
 H         -3.0660162459       -3.2196080583        0.1735173599
 H         -2.5609821899        4.4608959542       -0.3309699657
 H         -0.3549635135        3.2673248189       -0.3712495855
