  12
         -2.17219274
 N         -2.5663085869       -0.3004051258       -0.4621147256
 C         -1.3920095766       -0.0320776638       -0.0576778809
 C         -0.3269808057       -0.9284385008        0.5151666031
 C          0.5083393389        0.3667796011        0.5966413830
 O         -0.6040478510        1.1098953120        0.0398562691
 C          1.7361643393        0.3733274667       -0.2722040766
 O          2.5051914401       -0.5372520099       -0.3228664171
 H         -2.9134334907       -1.2220065483       -0.4319371743
 H          0.0704556075       -1.6534363045       -0.2016918703
 H         -0.5926836619       -1.3753202281        1.4790261617
 H          0.7075946969        0.7142877329        1.6279833521
 H          1.9507941958        1.2476590904       -0.8768672406
  12
         -2.17208220
 N         -2.4963485178       -0.3513272487       -0.5256858030
 C         -1.3500374570       -0.0440259281       -0.0713594648
 C         -0.3029367793       -0.8951976400        0.5946012368
 C          0.5054160052        0.4180604397        0.6660882661
 O         -0.5868859718        1.1148117336        0.0188960581
 C          1.7738385252        0.4081794617       -0.1465819265
 O          2.3302452947       -0.5927057749       -0.4824845508
 H         -2.8277146083       -1.2777579910       -0.4779970080
 H          0.1483778922       -1.6369399950       -0.0720326266
 H         -0.6131019782       -1.3102848624        1.5596236340
 H          0.6416432001        0.8144471975        1.6901253398
 H          2.2051481259        1.3514551340       -0.4614004143
  12
         -2.17198130
 N         -2.4629536689       -0.3708402833       -0.5545456275
 C         -1.3295690811       -0.0497870112       -0.0781325694
 C         -0.3012868655       -0.8810117512        0.6400094366
 C          0.5048570548        0.4346862761        0.6973689973
 O         -0.5701179903        1.1120150962        0.0021496093
 C          1.7940236993        0.4053477398       -0.0813295621
 O          2.2454721184       -0.5924948791       -0.5630051548
 H         -2.7936582764       -1.2966807176       -0.4887236464
 H          0.1672007670       -1.6405365610        0.0057800071
 H         -0.6384630576       -1.2686606171        1.6072393287
 H          0.6110565145        0.8603200344        1.7135004894
 H          2.3261884848        1.3339186547       -0.2651554988
