  47
        -10.25763531
 C          3.6833947948        3.4652690759       -0.1578022938
 S          4.1309003443        1.7997482683       -0.2119901906
 C          2.4938106676        1.1926376490       -0.0373064144
 C          2.0321461923       -0.1709743758        0.0036749815
 C          0.6819570291       -0.3914338124        0.1368230437
 C          0.1086989420       -1.6700912326        0.1722709150
 C         -1.2878622664       -1.8000100476        0.2892716039
 C         -1.8779647850       -3.0383797714        0.3061961175
 S         -3.6461426281       -3.1696984634        0.4314318820
 C         -4.1198997576       -1.6302083495       -0.0093207519
 C         -4.8426990564        0.0680719833       -1.6591242856
 C         -4.6686735600        1.4066058776       -1.8012349869
 C         -3.9791029038        1.9009376025       -0.6355309054
 C         -3.4394542094        3.0405616162       -0.0412518024
 N         -2.9026479927        2.6523716817        1.1549593255
 C         -3.0778557563        1.3025025747        1.3511738853
 C         -3.7467794003        0.8115114615        0.2391463273
 C         -4.2843633990       -0.3948676373       -0.3995216831
 C         -1.0410974396       -4.1190272530        0.2187421095
 C          0.2926604258       -4.0700768644        0.1092675905
 C          0.9352129764       -2.8167322620        0.0764522880
 C          2.3686822923       -2.6341433481       -0.0545730406
 C          3.2453113778       -3.7260758368       -0.1483835266
 C          4.5962818782       -3.5448979326       -0.2758066264
 C          5.1275040334       -2.2642416147       -0.3152802047
 C          4.3005614016       -1.1803002250       -0.2260590365
 C          2.9116740745       -1.3238432173       -0.0937086906
 C          1.6646471965        2.3007918404        0.0616117554
 S         -0.0528489532        2.5204917432        0.2727533917
 C          0.0974543718        4.2616685963        0.2677874909
 C          1.3750600059        4.6682280279        0.1147901610
 C          2.3139937764        3.5646385047       -0.0060259213
 H          4.3621067680        4.2917904556       -0.2274801412
 H          0.0150476964        0.4459627545        0.2111543595
 H         -1.8913971690       -0.9145676451        0.3543978207
 H         -5.3075504190       -0.5786641944       -2.3833339171
 H         -4.9745239476        2.0050852499       -2.6415094787
 H         -3.4393897772        4.0377734315       -0.4484818268
 H         -2.4325523406        3.2754379219        1.8169003793
 H         -2.7466366270        0.7327255110        2.2035672257
 H          0.8550225181       -4.9865021916        0.0432730685
 H          2.8513489794       -4.7256339695       -0.1193049695
 H          5.2507787086       -4.3983360779       -0.3458685946
 H          6.1916682581       -2.1264900321       -0.4159295876
 H          4.7235442450       -0.1941561237       -0.2571801003
 H         -0.7462109592        4.9160840951        0.3737262696
 H          1.6834673261        5.7003141569        0.0852714000
