47
 energy: -80.067941701420 gnorm: 0.000736267806 xtb: 6.5.1 (fef0646)
C            3.83053567864014        3.35814814032977       -0.94977165957561
S            4.07958373449138        1.68027687997845       -1.22598527567706
C            2.64096215558972        1.22239236371342       -0.34664818325241
C            2.15016591053099       -0.14246260617737       -0.24305873708105
C            0.81171296155448       -0.33870055577689       -0.42099509701544
C            0.21318765883182       -1.61908001472227       -0.33018728794723
C           -1.18318661131149       -1.72709264771489       -0.46917681154906
C           -1.70130024172433       -2.98254195148904       -0.35430018008210
S           -3.59229536556209       -3.19864019058366       -0.43654891143480
C           -4.19608600699349       -1.72701300387132       -0.57188435259763
C           -5.71761290475342        0.08401151293881       -1.37564412505536
C           -5.77795198527898        1.42508912187606       -1.22635983148447
C           -4.70497780374009        1.84083051407495       -0.36136122696824
C           -4.09379434882955        2.91486771262863        0.22841383049067
N           -3.03814840778100        2.43328030340513        0.95157905507089
C           -2.95013016805567        1.07421571570975        0.84389593003327
C           -3.97261089888585        0.67633930352187        0.02743638237265
C           -4.58996620102148       -0.47581194625543       -0.62340146242066
C           -0.95542009876257       -4.06153914707400       -0.08957316694210
C            0.38793109328923       -4.01494955914305        0.09537186569253
C            1.02060513748329       -2.75677513716675       -0.07554630944991
C            2.44491609712476       -2.57567838371654        0.05492592687088
C            3.31553406790877       -3.66287822258553        0.23651984643494
C            4.66115592807194       -3.48470882668439        0.43712567325530
C            5.19146643946244       -2.19764344387195        0.48772530048931
C            4.37286005636803       -1.11614671868178        0.28377796602913
C            3.00227133925624       -1.27092269905974        0.02451765561515
C            2.02114436458634        2.36084746308437        0.09468489182289
S            0.58032132797147        2.66095474352361        1.02664117734311
C            0.90279877283852        4.37869385515447        0.98206112169907
C            2.01487958501686        4.72094983210331        0.30691820158910
C            2.69533472545466        3.58143910282969       -0.22380399260114
H            4.53636409858856        4.06741651857736       -1.33130760635174
H            0.16771905150068        0.49799140282478       -0.65143229952109
H           -1.80992646570713       -0.85907137252632       -0.61707616199448
H           -6.37107064624195       -0.53223429932285       -1.96537519900453
H           -6.50427395118524        2.07985971698400       -1.67277179043685
H           -4.31183394950357        3.96379087220650        0.19522569363162
H           -2.39648460762041        2.99776044411119        1.48306886022758
H           -2.18265618043693        0.53078710808211        1.35880276333024
H            0.95220665142360       -4.89244412667792        0.36567352812594
H            2.92580798965567       -4.66774285548987        0.21320343035154
H            5.30667995945759       -4.34031170077815        0.56958033276327
H            6.24342108855914       -2.05199558335629        0.68266830689752
H            4.79517973103533       -0.12525251292237        0.33369365778791
H            0.21236698755117        5.03252417674941        1.47991821019023
H            2.35989718413070        5.73102830264141        0.18141447571891
