  10
         -1.56602723
 C         -1.2831174907        0.6823122156       -0.0007329328
 C         -0.0000488877       -0.0800374287        0.0032995934
 C          1.2908138103        0.6708841993       -0.0005748373
 O         -0.0074217366       -1.2826152010       -0.0008032991
 H         -1.9410367145        0.3039662650       -0.7821531440
 H         -1.1195525260        1.7453408533       -0.1774243510
 H         -1.7961245487        0.5664685477        0.9535698553
 H          2.0602131431        0.0894939112        0.5060915248
 H          1.1976107491        1.6291488399        0.5104012931
 H          1.6255701198        0.8538861683       -1.0214689153
  10
         -1.56588394
 C         -1.2791064816        0.6875084843       -0.0016531487
 C         -0.0007886492       -0.0842986329        0.0082070241
 C          1.2849823645        0.6730999136       -0.0014993186
 O         -0.0053526101       -1.2874303509       -0.0020677793
 H         -1.3673000939        1.2848946319       -0.9087117947
 H         -1.3435543470        1.3530321923        0.8590509960
 H         -2.1261000825        0.0029938031        0.0358701378
 H          2.0799022539        0.0616886235        0.4241405543
 H          1.2109795445        1.5903876300        0.5826469637
 H          1.5704165735        0.9341952697       -1.0204049247
  10
         -1.56579981
 C         -1.2770424103        0.6879684588       -0.0003371667
 C         -0.0004441285       -0.0858010841        0.0012891507
 C          1.2838662229        0.6751735990       -0.0001801991
 O         -0.0064960609       -1.2890843072       -0.0002467115
 H         -2.1244705162        0.0056246755        0.0554445933
 H         -1.3762582397        1.2763859985       -0.9124007758
 H         -1.3286451556        1.3629496364        0.8539321757
 H          1.3602445207        1.3173245406        0.8769843357
 H          1.3706349933        1.2956468714       -0.8922020541
 H          2.1255876634       -0.0167737299        0.0129611901
