  14
         -2.47244042
 C          0.5192291413       -1.8202070908        0.2827152205
 C          0.8872531576       -0.6018298557       -0.5504536338
 C          1.7915497503        0.4307762853        0.1758015617
 O          0.6527852148        1.2737274958        0.4284086086
 C         -0.1729330109        0.5585011540       -0.5413300703
 C         -1.5015970162        0.2364599502       -0.1263218772
 N         -2.5615837088       -0.0641550717        0.2248640070
 H          1.3756904187       -2.4803669632        0.4236799569
 H         -0.2796657341       -2.3937642990       -0.1889171049
 H          0.1659376253       -1.5154325882        1.2681088774
 H          1.2393432831       -0.8578273120       -1.5610391925
 H          2.5229355145        0.9537667311       -0.4588842199
 H          2.2279528025        0.0789091442        1.1218574632
 H         -0.1716315374        1.1431444844       -1.4785334778
  14
         -2.47223759
 C          0.5035405789       -1.9350413764        0.0631475813
 C          0.9602838930       -0.5882967282       -0.4828202008
 C          1.5510346996        0.3926069171        0.5661718959
 O          0.6805418779        1.4416272208        0.1064302430
 C         -0.1561765310        0.5081890867       -0.6431126485
 C         -1.4391357335        0.2313626937       -0.0790894604
 N         -2.4570280760       -0.0343312794        0.4013264781
 H         -0.0836820545       -2.4808164471       -0.6758513973
 H         -0.1225451202       -1.8028399831        0.9453495263
 H          1.3528289265       -2.5563779028        0.3487272430
 H          1.5929025020       -0.6757668978       -1.3780092882
 H          2.6070492369        0.6674593611        0.4221871014
 H          1.3217406596        0.1383085159        1.6106456545
 H         -0.2425246082        0.8810983090       -1.6792897265
