  14
         -2.47244042
 C          0.5192291413       -1.8202070908        0.2827152205
 C          0.8872531576       -0.6018298557       -0.5504536338
 C          1.7915497503        0.4307762853        0.1758015617
 O          0.6527852148        1.2737274958        0.4284086086
 C         -0.1729330109        0.5585011540       -0.5413300703
 C         -1.5015970162        0.2364599502       -0.1263218772
 N         -2.5615837088       -0.0641550717        0.2248640070
 H          1.3756904187       -2.4803669632        0.4236799569
 H         -0.2796657341       -2.3937642990       -0.1889171049
 H          0.1659376253       -1.5154325882        1.2681088774
 H          1.2393432831       -0.8578273120       -1.5610391925
 H          2.5229355145        0.9537667311       -0.4588842199
 H          2.2279528025        0.0789091442        1.1218574632
 H         -0.1716315374        1.1431444844       -1.4785334778
