  14
  -2.47244041000000       0.184529463783894      !
 C          0.5197958926       -1.8203239727        0.2828085556
 C          0.8873718336       -0.6017499275       -0.5502837885
 C          1.7915031791        0.4313899871        0.1753450842
 O          0.6524085881        1.2735706080        0.4288014548
 C         -0.1729108197        0.5584395135       -0.5412735901
 C         -1.5015582467        0.2360372691       -0.1265333123
 N         -2.5618739707       -0.0641832690        0.2247615927
 H          1.3758156170       -2.4813292295        0.4222312645
 H         -0.2803393652       -2.3930462060       -0.1876115038
 H          0.1683873806       -1.5156904065        1.2688383050
 H          1.2392726176       -0.8574176818       -1.5610534378
 H          2.5221690442        0.9549531994       -0.4594847824
 H          2.2285793033        0.0795044040        1.1209440634
 H         -0.1716494078        1.1432359299       -1.4782543982
  14
  -2.47244036000000       0.184519700635818      !
 C          0.5194638194       -1.8202991407        0.2827888879
 C          0.8872441936       -0.6017484684       -0.5502200087
 C          1.7914416021        0.4312594470        0.1754814423
 O          0.6525254305        1.2737898784        0.4285790703
 C         -0.1729366073        0.5585722177       -0.5413101660
 C         -1.5014980525        0.2364086804       -0.1262320173
 N         -2.5614994904       -0.0647427261        0.2246042393
 H         -0.2787492430       -2.3945027839       -0.1890997069
 H          0.1653599541       -1.5155074373        1.2678247509
 H          1.3761645512       -2.4799706612        0.4246153325
 H          1.2393189288       -0.8574348754       -1.5609233507
 H          2.5224039671        0.9545519554       -0.4592298589
 H          2.2282312614        0.0793542403        1.1212030971
 H         -0.1717510619        1.1432485746       -1.4783690521
  14
  -2.47244029000000       0.184506033096434      !
 C          0.5200575279       -1.8202537952        0.2830309503
 C          0.8872609772       -0.6017637102       -0.5503564112
 C          1.7915880666        0.4314091821        0.1749512907
 O          0.6524781099        1.2733787195        0.4290188556
 C         -0.1730162817        0.5584365160       -0.5410357728
 C         -1.5016519642        0.2360608389       -0.1262713404
 N         -2.5620554741       -0.0640847702        0.2243117717
 H          0.1654014363       -1.5153162739        1.2677828079
 H          1.3772013269       -2.4791872971        0.4254553428
 H         -0.2775404087       -2.3952863938       -0.1888768766
 H          1.2389286517       -0.8575399817       -1.5611804827
 H          2.5218338066        0.9551677979       -0.4602045939
 H          2.2292011629        0.0795004564        1.1202975356
 H         -0.1718068746        1.1434029651       -1.4779119869
  14
  -2.47223845000000       0.149022323347885      !
 C          0.5046763522       -1.9350705827        0.0632903034
 C          0.9606556302       -0.5882104954       -0.4829253011
 C          1.5513306212        0.3930152324        0.5658291486
 O          0.6799090059        1.4415556914        0.1067253507
 C         -0.1564021877        0.5077417715       -0.6428369905
 C         -1.4392632178        0.2303841908       -0.0788321069
 N         -2.4578846796       -0.0335081388        0.4008385139
 H          1.3544523746       -2.5570421389        0.3464020328
 H         -0.0848043872       -2.4800727724       -0.6747470264
 H         -0.1191838597       -1.8029272739        0.9472728920
 H          1.5929045718       -0.6755089948       -1.3783963333
 H          2.6070657449        0.6685654598        0.4211400776
 H          1.3229669254        0.1384776792        1.6104447064
 H         -0.2429641863        0.8807148986       -1.6789761784
  14
  -2.47223715000000       0.148817461239881      !
 C          0.5056368010       -1.9355091347        0.0628190693
 C          0.9610337974       -0.5882051710       -0.4828092353
 C          1.5508198311        0.3931677390        0.5662998398
 O          0.6796061999        1.4415019403        0.1063132709
 C         -0.1564956040        0.5072068603       -0.6428750716
 C         -1.4390976981        0.2297350649       -0.0783251641
 N         -2.4584415363       -0.0320888795        0.4008138312
 H         -0.1170432867       -1.8041217873        0.9477198753
 H          1.3557639105       -2.5578076437        0.3442647441
 H         -0.0848561572       -2.4797919151       -0.6749557742
 H          1.5936295545       -0.6748569383       -1.3780961686
 H          2.6066583607        0.6688142009        0.4224864479
 H          1.3215585002        0.1387272900        1.6107580797
 H         -0.2434525333        0.8798285526       -1.6791165346
  14
  -2.47223580000000       0.148605017896089      !
 C          0.5051128103       -1.9351764853        0.0630165043
 C          0.9607596958       -0.5881389757       -0.4832116413
 C          1.5502017368        0.3927188178        0.5666751408
 O          0.6791667266        1.4413610082        0.1068304056
 C         -0.1562495702        0.5077114637       -0.6435820349
 C         -1.4394462852        0.2295795342       -0.0808573664
 N         -2.4565375722       -0.0323820783        0.4026071120
 H         -0.0831613574       -2.4826263575       -0.6756110317
 H         -0.1199814893       -1.8013291236        0.9471180266
 H          1.3561065995       -2.5553339693        0.3486398475
 H          1.5932453382       -0.6744307170       -1.3786661590
 H          2.6061238578        0.6686142494        0.4235734733
 H          1.3206652670        0.1375750111        1.6109963779
 H         -0.2421246349        0.8810712552       -1.6795500063
