  12
         -2.29391732
 N         -2.4966065273       -0.1064705332        0.0043172965
 C         -1.6931049960        0.8692838786       -0.0014996220
 N         -0.3125825682        0.7457459752       -0.0030712248
 C          0.4077191840       -0.4466180847       -0.0015343649
 N         -0.1663384754       -1.5860035027       -0.0018995016
 C          1.8551546819       -0.3349317519        0.0007629059
 O          2.4302454835        0.7210360578        0.0023264797
 H         -3.4739972346        0.0287010488        0.0056528691
 H         -2.0993533875        1.8710104693       -0.0055131727
 H          0.2574155688        1.5886908987       -0.0039857100
 H         -1.1557380849       -1.5858009933       -0.0011680564
 H          2.4550745559       -1.2372441517        0.0042277760
  12
         -2.29170822
 N         -2.5626276166        1.2181049356       -0.0000465636
 C         -1.8122788967        0.1995681249        0.0043764463
 N         -0.4362608542        0.3070209586       -0.0012094932
 C          0.5371704357       -0.6913955869       -0.0007186272
 N          0.2859181540       -1.9445110317       -0.0044098116
 C          1.9007267860       -0.1963836613        0.0007638880
 O          2.1433320382        0.9817814033        0.0012862418
 H         -3.5474848081        1.1382628710        0.0042117042
 H         -2.2471016253       -0.7868073944        0.0133197454
 H         -0.0673553990        1.2571640784       -0.0038750910
 H         -0.6434989811       -2.2690835006       -0.0081462719
 H          2.7290248004       -0.8949776964        0.0001182960
