  15
         -2.54055957
 C         -2.1444917780        0.7461073701       -0.1067354956
 N         -1.4765306786       -0.5219638725        0.0990854850
 C         -0.0951706399       -0.7033522592        0.0299761335
 N          0.3944065837       -1.8854665396       -0.0187224847
 C          0.8109922863        0.4582202773        0.0138572662
 C          2.2782407718        0.2115660057       -0.0617176735
 O          0.3882584235        1.5901091927        0.0717827070
 H         -1.6795572359        1.5019659455        0.5254551368
 H         -3.2043300009        0.6895505579        0.1444915783
 H         -2.0374124873        1.0598588368       -1.1451370737
 H         -2.0736443174       -1.3328775115       -0.0573515302
 H         -0.2218590491       -2.6538958628        0.0027298924
 H          2.7562266479        0.4807683455        0.8793958671
 H          2.7218634994        0.8156017973       -0.8525613772
 H          2.4897493655       -0.8375598539       -0.2682247228
  15
         -2.54046464
 C         -2.1391523006        0.7491827774       -0.1009427555
 N         -1.4767048600       -0.5244692808        0.0849476711
 C         -0.0942860931       -0.7030070747        0.0328821819
 N          0.3986605635       -1.8839813674       -0.0107919878
 C          0.8088862408        0.4600521641        0.0253588730
 C          2.2736815213        0.2058998275       -0.0712171543
 O          0.3841427539        1.5919809025        0.0729547518
 H         -3.2099882458        0.6814212132        0.0909287099
 H         -1.9776834011        1.1075404476       -1.1174702869
 H         -1.7091828837        1.4780859434        0.5859439548
 H         -2.0718204662       -1.3305925790       -0.1019236001
 H         -0.2158301438       -2.6542881423        0.0016765822
 H          2.5539574607       -0.6732211818        0.5089151310
 H          2.8294819210        1.0628771540        0.3090861703
 H          2.5659955941        0.0409863324       -1.1082173971
  15
         -2.54038283
 C         -2.1396180560        0.7597186116       -0.0392722909
 N         -1.4743187319       -0.5244870170        0.0273997774
 C         -0.0942223844       -0.7083342889        0.0120323458
 N          0.4002601209       -1.8896471616        0.0068592286
 C          0.8078809200        0.4558707036        0.0000444178
 C          2.2762336125        0.2138113895       -0.0399459876
 O          0.3795484814        1.5861416857        0.0388821588
 H         -3.2230735325        0.6663895071        0.0369832634
 H         -1.8885387700        1.2488469211       -0.9805960416
 H         -1.7818933192        1.3930742174        0.7729471626
 H         -2.0907306192       -1.3357250329        0.0088165652
 H         -0.2091052010       -2.6637637313        0.0175680408
 H          2.7211419561        0.4181251810        0.9328616286
 H          2.7450525435        0.8703754299       -0.7722283645
 H          2.4959761535       -0.8193597789       -0.3095521550
  15
         -2.54035189
 C         -2.6231273241       -0.4550347255        0.1218985563
 N         -1.3714713576        0.2217053587       -0.1499825955
 C         -0.1246759924       -0.3850842057       -0.0548773032
 N          0.0398836045       -1.6522358182        0.0022846620
 C          1.0246824526        0.5298278466       -0.0056548817
 C          2.4021284785       -0.0295962017        0.0432658100
 O          0.8265956520        1.7235311356        0.0084459147
 H         -2.6187916026       -0.8573478975        1.1341616737
 H         -2.7599213076       -1.2757167806       -0.5811847099
 H         -3.4712708072        0.2226899074        0.0179240271
 H         -1.3883400115        1.2369394686       -0.0359734120
 H         -0.7425859615       -2.2474629575       -0.0329155363
 H          3.0312262980        0.4528983765       -0.7036430498
 H          2.3956085216       -1.1023711707       -0.1501187606
 H          2.8463113260        0.1414388269        1.0233388600
  15
         -2.54023772
 C         -2.6201861278       -0.4392515798       -0.1755628945
 N         -1.3711059657        0.2058656502        0.1750758883
 C         -0.1237358427       -0.3885055488        0.0246621571
 N          0.0422704553       -1.6475059091       -0.1286662036
 C          1.0232821136        0.5297009302        0.0370755434
 C          2.4000110851       -0.0294043435       -0.0355560206
 O          0.8234335643        1.7199432179        0.1298936665
 H         -2.7759543204       -1.3114137918        0.4576129988
 H         -2.5951888827       -0.7611815814       -1.2166219838
 H         -3.4674652513        0.2339378748       -0.0381392626
 H         -1.3862717048        1.2273371982        0.1567726679
 H         -0.7400696476       -2.2442208895       -0.1267314054
 H          2.4193962821       -0.9372388895       -0.6387042303
 H          2.7678612629       -0.2708922695        0.9619171911
 H          3.0775426633        0.6979996601       -0.4828367664
  15
         -2.54015223
 C         -2.6165071763       -0.4539760283        0.1463308625
 N         -1.3718731994        0.2190121589       -0.1644560809
 C         -0.1233755718       -0.3839023400       -0.0622585711
 N          0.0433111880       -1.6503343587        0.0026461869
 C          1.0227721635        0.5328605145       -0.0092638528
 C          2.3960224152       -0.0362769956        0.0609191068
 O          0.8236587702        1.7270910399       -0.0116805821
 H         -3.4642337081        0.2303905642        0.0853680077
 H         -2.5751858452       -0.8715097133        1.1532274108
 H         -2.7847203385       -1.2638242446       -0.5637166845
 H         -1.3870940553        1.2354332939       -0.0594017197
 H         -0.7384740694       -2.2464593021       -0.0369477686
 H          3.1364505292        0.7584142824       -0.0268611453
 H          2.5596039069       -0.7514963649       -0.7454716667
 H          2.5516028027       -0.5486133945        1.0104367076
  15
         -2.53976158
 C         -2.1940476964        0.7247104092       -0.1364977434
 N         -1.4748486444       -0.5136875853        0.0952356757
 C         -0.0918479144       -0.6922524350        0.0331240708
 N          0.3948046803       -1.8761801511       -0.0012489929
 C          0.8236407526        0.4618904612        0.0162512775
 C          2.2858300014        0.1993462150       -0.0999835802
 O          0.4182140213        1.5976164631        0.1139417510
 H         -2.7937546964        0.6616531756       -1.0445988094
 H         -1.4951425145        1.5513855104       -0.2499635483
 H         -2.8476833716        0.9476252623        0.7072568592
 H         -2.0698376841       -1.3404893781        0.0715261324
 H         -0.2231035239       -2.6436148481        0.0165344473
 H          2.7655174962        0.2858043233        0.8744087794
 H          2.7462394785        0.9237850229       -0.7711865882
 H          2.4741643353       -0.8013796726       -0.4891119686
  15
         -2.53929280
 C         -2.6320200592       -0.3863307329       -0.2309698416
 N         -1.3694659912        0.1835071052        0.2064738681
 C         -0.1204739266       -0.4056296776        0.0313690860
 N          0.0604139159       -1.6629409043       -0.1217837375
 C          1.0204170299        0.5214464528        0.0474885373
 C          2.4018875203       -0.0150015640       -0.0793479340
 O          0.8130550684        1.7070944976        0.1738737735
 H         -3.0944265163        0.2364126251       -0.9973462851
 H         -3.3167360946       -0.4720960930        0.6133938939
 H         -2.4839414669       -1.3776898881       -0.6543083746
 H         -1.3722451735        1.2028251091        0.2849849976
 H         -0.7053441806       -2.2794337686       -0.0920612414
 H          2.9392627814        0.5095882480       -0.8686686701
 H          2.3882214310       -1.0784793393       -0.3178882827
 H          2.9488095066        0.1225236396        0.8531543698
