  13
         -2.38972764
 O          0.0607394058       -1.5380834270       -0.2875487697
 C          0.4054423799       -0.3996399604        0.4913606755
 C          1.6605239381        0.1806748710        0.1294112302
 N          2.6632376996        0.6628803936       -0.1877610446
 C         -0.7443371768        0.6110670542        0.4155274219
 C         -2.1316647976        0.1004487537        0.3955268166
 N         -1.5211129685        0.6142702258       -0.8135189194
 H         -0.0799123024       -1.2501788881       -1.2146836529
 H          0.4846082670       -0.7738077724        1.5256057636
 H         -0.5472951443        1.5746629008        0.9015655334
 H         -2.9249734042        0.6853191803        0.8666766350
 H         -2.2794812229       -0.9789711489        0.4427241665
 H         -1.8359796669        1.5404960891       -1.1051833312
