  13
         -2.38972764
 O          0.0607394058       -1.5380834270       -0.2875487697
 C          0.4054423799       -0.3996399604        0.4913606755
 C          1.6605239381        0.1806748710        0.1294112302
 N          2.6632376996        0.6628803936       -0.1877610446
 C         -0.7443371768        0.6110670542        0.4155274219
 C         -2.1316647976        0.1004487537        0.3955268166
 N         -1.5211129685        0.6142702258       -0.8135189194
 H         -0.0799123024       -1.2501788881       -1.2146836529
 H          0.4846082670       -0.7738077724        1.5256057636
 H         -0.5472951443        1.5746629008        0.9015655334
 H         -2.9249734042        0.6853191803        0.8666766350
 H         -2.2794812229       -0.9789711489        0.4427241665
 H         -1.8359796669        1.5404960891       -1.1051833312
  13
         -2.38715582
 O          0.0563918349       -1.5570662931       -0.2542993713
 C          0.3992660257       -0.3951452524        0.5004971104
 C          1.6356419736        0.2015591117        0.1036423316
 N          2.6384211248        0.6710384655       -0.2322191925
 C         -0.7656975889        0.6027607220        0.4399541333
 C         -2.1415114514        0.0725001872        0.3268005265
 N         -1.5014969821        0.7001544243       -0.8106620206
 H          0.8525340868       -2.1057171835       -0.4083525980
 H          0.5044514869       -0.7363913774        1.5448408330
 H         -0.6039026521        1.5302372349        1.0030156376
 H         -2.9626615744        0.5986902230        0.8188937314
 H         -2.2665446583       -1.0093172121        0.2690003225
 H         -1.8236690246        1.6440947248       -1.0342935746
