13
 energy: -21.457732282556 gnorm: 0.000042314828 xtb: 6.7.1 (edcfbbe)
O            0.14938295143631       -1.55467506996616       -0.31170544526440
C            0.40291841892402       -0.44311499381526        0.50494847280427
C            1.63727897040074        0.23592784259817        0.11529095224547
N            2.58946139843237        0.77559163749719       -0.21560743423837
C           -0.73560860731386        0.58027811934780        0.44635528220921
C           -2.13720187790567        0.11206576863741        0.37791394695290
N           -1.45069587219513        0.58321447911168       -0.80707905396963
H           -0.28855187671163       -1.22338260018321       -1.11258611434513
H            0.53089044741350       -0.81561766402788        1.53210113740298
H           -0.51227818896916        1.51598877589573        0.95188832113743
H           -2.91072298863787        0.72035287313891        0.83059793195228
H           -2.32916978510745       -0.95282918207039        0.39238933182786
H           -1.73590798296616        1.49533828553602       -1.14480480381486
