  16
         -2.63072184
 C         -1.2649845086       -1.4079099701        0.4787230129
 C         -1.5387272985        0.0109136408        0.0120043301
 C         -0.7960093551        0.5391135861       -1.1623641675
 N         -0.5816396843        1.1190964516        0.1920514647
 C          0.6728845300        0.7620444599        0.9030218280
 C          1.7198849293        0.1518961364        0.0400864371
 O          1.6287174513       -0.9307360667       -0.4548504976
 H         -1.5345710448       -1.5404078054        1.5269608077
 H         -0.2115872022       -1.6622935871        0.3683415928
 H         -1.8328183945       -2.1294074372       -0.1098395518
 H         -2.5894140989        0.3064504048        0.1069553729
 H         -1.3155272767        1.1672161741       -1.8852639333
 H         -0.0024616085       -0.0711541707       -1.5903432328
 H          0.4332627174        0.0861489479        1.7279355574
 H          1.0530066694        1.6769089096        1.3699311260
 H          2.6117390256        0.7210917721       -0.1983725425
  16
         -2.62954453
 C         -1.0168093976       -1.4630974874       -0.2562780622
 C         -1.3698922211       -0.0940762500        0.3000453918
 C         -1.6587120173        1.0302245233       -0.6339749752
 N         -0.4595155431        1.0638887948        0.2436493347
 C          0.8312195552        0.8284820551       -0.4425440450
 C          1.7695412287        0.0307723081        0.3917622733
 O          1.7564325478       -1.1614650361        0.4644171396
 H         -0.5127866677       -1.3886963007       -1.2183177089
 H         -1.9084798705       -2.0740194394       -0.4037730408
 H         -0.3457123075       -1.9942035155        0.4200986005
 H         -1.9613135564       -0.1415437118        1.2210458554
 H         -2.4566617624        1.7322717940       -0.3944990109
 H         -1.5018985427        0.8804213988       -1.7010910655
 H          1.2650471488        1.8047273497       -0.6818717571
 H          0.6706491417        0.3266843796       -1.3993315580
 H          2.4709109365        0.5467461459        1.0381444308
  16
         -2.62798722
 C         -1.4954751825       -1.2943857460        0.6971126426
 C         -1.5878062520        0.0570302936        0.0124793539
 C         -0.7532630559        0.3261844514       -1.1896731818
 N         -0.5143696317        1.0651255561        0.0805795090
 C          0.6632464043        0.6923236930        0.9065221985
 C          1.5719429674       -0.3273472774        0.3147463554
 O          1.9474655204       -0.3277082814       -0.8180285672
 H         -0.4746257893       -1.6719465526        0.6959375677
 H         -2.1127256159       -2.0344174170        0.1859893883
 H         -1.8279079343       -1.2364052347        1.7340685885
 H         -2.5993044150        0.4777608933        0.0141013198
 H         -1.1679633539        0.9055867370       -2.0138047693
 H         -0.0131761556       -0.4113845804       -1.4943688077
 H          0.3081074589        0.3793169846        1.8931657926
 H          1.2342378864        1.6122029897        1.0686154113
 H          1.9703314169       -1.1117299747        0.9493222801
  16
         -2.62683015
 C         -2.1437281409       -1.1435295119        0.6300848876
 C         -1.8204973476        0.2906126682        0.2486159945
 C         -1.3051528909        0.5972700103       -1.1146016797
 N         -0.4419394524        0.7845403194        0.0799465859
 C          0.6114855155       -0.2447910436        0.2539970420
 C          1.9689420137        0.2953549492       -0.0180300674
 O          2.9611589672       -0.3687936504       -0.0813424138
 H         -3.1461420188       -1.4184326634        0.2999557729
 H         -2.0958286733       -1.2840069991        1.7104148075
 H         -1.4524207488       -1.8497730234        0.1740362534
 H         -2.5039918969        1.0222196266        0.6934078099
 H         -1.6354867751        1.5039650304       -1.6204686228
 H         -1.0692428249       -0.2265672945       -1.7865418531
 H          0.4316026051       -1.0923926387       -0.4115644498
 H          0.5695333069       -0.6237623390        1.2791878349
 H          2.0816291113        1.3642841331       -0.1590050213
