  16
  -2.63072184000000       0.246980762955059      !
 C         -1.2649845086       -1.4079099701        0.4787230129
 C         -1.5387272985        0.0109136408        0.0120043301
 C         -0.7960093551        0.5391135861       -1.1623641675
 N         -0.5816396843        1.1190964516        0.1920514647
 C          0.6728845300        0.7620444599        0.9030218280
 C          1.7198849293        0.1518961364        0.0400864371
 O          1.6287174513       -0.9307360667       -0.4548504976
 H         -1.5345710448       -1.5404078054        1.5269608077
 H         -0.2115872022       -1.6622935871        0.3683415928
 H         -1.8328183945       -2.1294074372       -0.1098395518
 H         -2.5894140989        0.3064504048        0.1069553729
 H         -1.3155272767        1.1672161741       -1.8852639333
 H         -0.0024616085       -0.0711541707       -1.5903432328
 H          0.4332627174        0.0861489479        1.7279355574
 H          1.0530066694        1.6769089096        1.3699311260
 H          2.6117390256        0.7210917721       -0.1983725425
  16
  -2.63071978000000       0.246442960575972      !
 C         -1.2607681607       -1.4078221868        0.4806314613
 C         -1.5371346481        0.0092378573        0.0104171427
 C         -0.7945475926        0.5385505443       -1.1637551260
 N         -0.5820571084        1.1186975071        0.1911247970
 C          0.6730666007        0.7659661420        0.9038003617
 C          1.7203392241        0.1475349963        0.0470210757
 O          1.6207921242       -0.9284450461       -0.4610320518
 H         -1.8229402694       -2.1322440866       -0.1099399587
 H         -1.5354033166       -1.5397570790        1.5277276303
 H         -0.2061582957       -1.6584519146        0.3759748658
 H         -2.5885296121        0.3027392744        0.1038069243
 H         -1.3128339785        1.1679740325       -1.8864304353
 H         -0.0000044162       -0.0706028584       -1.5913823971
 H          0.4333349121        0.0985245004        1.7355991162
 H          1.0537205764        1.6853823496        1.3613752487
 H          2.6278232068        0.7010353615       -0.1685908652
  16
  -2.63070807000000       0.243408014637011      !
 C         -1.2582817685       -1.4089231728        0.4774333375
 C         -1.5365630174        0.0089377781        0.0109621193
 C         -0.7955226301        0.5415744698       -1.1626333474
 N         -0.5830916996        1.1197977637        0.1928945023
 C          0.6736079981        0.7670649607        0.9022844073
 C          1.7181425627        0.1486535281        0.0420882008
 O          1.6213352244       -0.9327958491       -0.4545854981
 H         -0.2042593995       -1.6597029289        0.3674916270
 H         -1.8234688581       -2.1323696990       -0.1115745766
 H         -1.5271187499       -1.5424797615        1.5257356809
 H         -2.5883226338        0.3005660795        0.1058530683
 H         -1.3167933199        1.1699523487       -1.8840598929
 H          0.0005681458       -0.0646236751       -1.5916457087
 H          0.4352198464        0.0983283194        1.7333570171
 H          1.0559100327        1.6854295345        1.3605443840
 H          2.6179331921        0.7075112750       -0.1893894437
  16
  -2.62954453000000       7.105733468897166E-002 !
 C         -1.0168093976       -1.4630974874       -0.2562780622
 C         -1.3698922211       -0.0940762500        0.3000453918
 C         -1.6587120173        1.0302245233       -0.6339749752
 N         -0.4595155431        1.0638887948        0.2436493347
 C          0.8312195552        0.8284820551       -0.4425440450
 C          1.7695412287        0.0307723081        0.3917622733
 O          1.7564325478       -1.1614650361        0.4644171396
 H         -0.5127866677       -1.3886963007       -1.2183177089
 H         -1.9084798705       -2.0740194394       -0.4037730408
 H         -0.3457123075       -1.9942035155        0.4200986005
 H         -1.9613135564       -0.1415437118        1.2210458554
 H         -2.4566617624        1.7322717940       -0.3944990109
 H         -1.5018985427        0.8804213988       -1.7010910655
 H          1.2650471488        1.8047273497       -0.6818717571
 H          0.6706491417        0.3266843796       -1.3993315580
 H          2.4709109365        0.5467461459        1.0381444308
  16
  -2.62953309000000       7.020231818097342E-002 !
 C         -1.0196123079       -1.4625839443       -0.2532954188
 C         -1.3722684385       -0.0923472882        0.3006809545
 C         -1.6596777448        1.0319405578       -0.6341486207
 N         -0.4596560998        1.0634427946        0.2422393653
 C          0.8297932950        0.8238592189       -0.4450667560
 C          1.7690380205        0.0318049735        0.3934150066
 O          1.7643328688       -1.1611684221        0.4628701265
 H         -1.9089614404       -2.0829002057       -0.3742888664
 H         -0.3272979371       -1.9820787643        0.4113146306
 H         -0.5400924655       -1.3911791311       -1.2284311803
 H         -1.9616907639       -0.1377337145        1.2230703378
 H         -2.4557510832        1.7359569617       -0.3943037795
 H         -1.5039845488        0.8813388578       -1.7013051666
 H          1.2634359526        1.7981554239       -0.6924496126
 H          0.6672558735        0.3148788262       -1.3976955857
 H          2.4596040826        0.5530498432        1.0479646764
  16
  -2.62951990000000       6.922926951372355E-002 !
 C         -1.0250537048       -1.4632296599       -0.2554402255
 C         -1.3720181670       -0.0928147360        0.3020983985
 C         -1.6603539990        1.0339174803       -0.6295755386
 N         -0.4568750119        1.0611244798        0.2417641186
 C          0.8284355238        0.8187590315       -0.4517469148
 C          1.7731864115        0.0343683974        0.3874727888
 O          1.7655496745       -1.1571446169        0.4718687630
 H         -0.3350610620       -1.9874977176        0.4082570444
 H         -0.5451242255       -1.3917604866       -1.2308265989
 H         -1.9176876223       -2.0795118180       -0.3783464156
 H         -1.9579757147       -0.1383927961        1.2265875631
 H         -2.4546095906        1.7385699965       -0.3853777877
 H         -1.5109790429        0.8828652737       -1.6976083370
 H          1.2591093037        1.7915472181       -0.7099751246
 H          0.6610815439        0.3015881197       -1.3990495224
 H          2.4724653177        0.5603608413        1.0285638847
  16
  -2.62798722000000       1.367473094831991E-002 !
 C         -1.4954751825       -1.2943857460        0.6971126426
 C         -1.5878062520        0.0570302936        0.0124793539
 C         -0.7532630559        0.3261844514       -1.1896731818
 N         -0.5143696317        1.0651255561        0.0805795090
 C          0.6632464043        0.6923236930        0.9065221985
 C          1.5719429674       -0.3273472774        0.3147463554
 O          1.9474655204       -0.3277082814       -0.8180285672
 H         -0.4746257893       -1.6719465526        0.6959375677
 H         -2.1127256159       -2.0344174170        0.1859893883
 H         -1.8279079343       -1.2364052347        1.7340685885
 H         -2.5993044150        0.4777608933        0.0141013198
 H         -1.1679633539        0.9055867370       -2.0138047693
 H         -0.0131761556       -0.4113845804       -1.4943688077
 H          0.3081074589        0.3793169846        1.8931657926
 H          1.2342378864        1.6122029897        1.0686154113
 H          1.9703314169       -1.1117299747        0.9493222801
  16
  -2.62797740000000       1.353336611272677E-002 !
 C         -1.4900751191       -1.2971958605        0.6940116701
 C         -1.5862732211        0.0554675014        0.0128167672
 C         -0.7534726389        0.3288007105       -1.1896114161
 N         -0.5158497590        1.0665705055        0.0816555092
 C          0.6648057564        0.6981842549        0.9055240069
 C          1.5724677347       -0.3243975430        0.3175474541
 O          1.9399753116       -0.3357961748       -0.8177132579
 H         -2.0914980934       -2.0414519120        0.1713430875
 H         -1.8387771636       -1.2466838609        1.7254671937
 H         -0.4662036206       -1.6642242105        0.7073232152
 H         -2.5993021347        0.4724157960        0.0144157074
 H         -1.1699267162        0.9086680120       -2.0124940793
 H         -0.0122882775       -0.4069107868       -1.4958262676
 H          0.3128032704        0.3910015957        1.8949933495
 H          1.2361460995        1.6189984911        1.0603240780
 H          1.9805305566       -1.0985788536        0.9582342196
  16
  -2.62797521000000       1.350203957086584E-002 !
 C         -1.4827218090       -1.2986780205        0.6921237070
 C         -1.5847421779        0.0547726731        0.0134691595
 C         -0.7551319721        0.3327209762       -1.1904008217
 N         -0.5168870510        1.0687288250        0.0817691240
 C          0.6646286452        0.7016803308        0.9046141349
 C          1.5691741173       -0.3256867968        0.3192506648
 O          1.9369729552       -0.3412849990       -0.8164393739
 H         -1.8280709710       -1.2512682359        1.7251855969
 H         -0.4575297903       -1.6629433459        0.7015168275
 H         -2.0834543592       -2.0439703686        0.1699424742
 H         -2.5989224750        0.4690696706        0.0189519903
 H         -1.1761794692        0.9121816598       -2.0113727440
 H         -0.0126002788       -0.4003386388       -1.5002474804
 H          0.3127181856        0.3984123296        1.8954461965
 H          1.2379010384        1.6219348902        1.0557644503
 H          1.9749575363       -1.0997802233        0.9614698793
  16
  -2.62683015000000       4.019446345584540E-003 !
 C         -2.1437281409       -1.1435295119        0.6300848876
 C         -1.8204973476        0.2906126682        0.2486159945
 C         -1.3051528909        0.5972700103       -1.1146016797
 N         -0.4419394524        0.7845403194        0.0799465859
 C          0.6114855155       -0.2447910436        0.2539970420
 C          1.9689420137        0.2953549492       -0.0180300674
 O          2.9611589672       -0.3687936504       -0.0813424138
 H         -3.1461420188       -1.4184326634        0.2999557729
 H         -2.0958286733       -1.2840069991        1.7104148075
 H         -1.4524207488       -1.8497730234        0.1740362534
 H         -2.5039918969        1.0222196266        0.6934078099
 H         -1.6354867751        1.5039650304       -1.6204686228
 H         -1.0692428249       -0.2265672945       -1.7865418531
 H          0.4316026051       -1.0923926387       -0.4115644498
 H          0.5695333069       -0.6237623390        1.2791878349
 H          2.0816291113        1.3642841331       -0.1590050213
  16
  -2.62682545000000       3.999505195775585E-003 !
 C         -2.1440390705       -1.1454074188        0.6257671776
 C         -1.8195461490        0.2906234787        0.2529297499
 C         -1.3116939595        0.6047242214       -1.1113146544
 N         -0.4410244431        0.7831142398        0.0791773574
 C          0.6115667625       -0.2493739940        0.2405839858
 C          1.9702041486        0.2942088131       -0.0189074945
 O          2.9650137694       -0.3673161022       -0.0691356456
 H         -2.1109114332       -1.2886876764        1.7062753590
 H         -1.4442764550       -1.8487042960        0.1775409667
 H         -3.1410907713       -1.4217058779        0.2807036517
 H         -2.5004321819        1.0203659794        0.7047441365
 H         -1.6420130320        1.5155137190       -1.6098167685
 H         -1.0815530897       -0.2154444721       -1.7897448113
 H          0.4331399399       -1.0868572994       -0.4382640286
 H          0.5667954422       -0.6437931916        1.2599127691
 H          2.0803964191        1.3629023564       -0.1638361062
  16
  -2.62681374000000       3.950251275016789E-003 !
 C         -2.1396941503       -1.1505819986        0.6172523046
 C         -1.8184960628        0.2899370969        0.2588925118
 C         -1.3225413776        0.6234616579       -1.1049525312
 N         -0.4401754130        0.7812522035        0.0799798123
 C          0.6102195109       -0.2570877762        0.2158832949
 C          1.9704633075        0.2895048527       -0.0293820253
 O          2.9705873737       -0.3658819105       -0.0386239659
 H         -1.4562632446       -1.8491106176        0.1375566068
 H         -3.1476644023       -1.4170353876        0.2964458999
 H         -2.0764633907       -1.3116769743        1.6939359547
 H         -2.4922810988        1.0145296867        0.7292251037
 H         -1.6564547799        1.5422764254       -1.5860129933
 H         -1.1033427829       -0.1874428030       -1.7979932611
 H          0.4295234845       -1.0780858982       -0.4822291504
 H          0.5652548877       -0.6753346687        1.2255449613
 H          2.0754133095        1.3531132529       -0.2106806024
