  34
  -7.4419763000000003       0.52493487895873470      !mtd1
 C         -6.5501248621        0.0798705208       -0.0182008252
 C         -5.5502766756        1.0149264284       -0.0141116185
 C         -4.2232478545        0.5757649065       -0.0040234537
 C         -3.1419544086        1.4705487267       -0.0013614234
 C         -1.8293795095        1.0072475689        0.0059440423
 C         -0.7033305698        1.8601958699        0.0066334359
 N          0.5556806524        1.4782280130        0.0111661638
 C          0.7850058595        0.1293422773        0.0149924821
 C          2.1105877309       -0.3295282393        0.0127247321
 C          3.1839052037        0.5270042934        0.0056532275
 C          4.5332514283        0.1110610061       -0.0010205649
 C          5.5836897048        1.0605232989       -0.0075608078
 C          6.8888220207        0.6425008419       -0.0135749856
 C          7.2078172540       -0.7203232855       -0.0135329986
 C          6.1939764417       -1.6506405064       -0.0073244929
 C          4.9181009137       -1.2135241855       -0.0013427458
 C         -0.2673437458       -0.7656775873        0.0174535601
 C         -1.5890167202       -0.4029671520        0.0125170513
 C         -2.6610248329       -1.2894799048        0.0114420972
 C         -3.9846033141       -0.8341390714        0.0021930638
 N         -4.9922191306       -1.7412358633       -0.0014537651
 C         -6.2249170145       -1.2592801330       -0.0115817847
 H         -7.5824350197        0.3883649264       -0.0273503544
 H         -5.7706707132        2.0681201536       -0.0206283461
 H         -3.3300880371        2.5283453852       -0.0060271991
 H         -0.8766028903        2.9230212154        0.0012160968
 H          2.2868400797       -1.3897639903        0.0139771674
 H          2.9788215068        1.5820626159        0.0032954640
 H          5.3439256863        2.1094921928       -0.0075184513
 H          7.6823913998        1.3709230600       -0.0181699465
 H          8.2372008589       -1.0375063786       -0.0185339009
 H          6.4056063111       -2.7098891493       -0.0077099079
 H         -2.4736996326       -2.3465468612        0.0160873434
 H         -7.0172339880       -1.9916174237       -0.0149656245
  34
  -7.4411755900000003       0.22496999174660026      !mtd4
 C         -6.5552783697        0.1431076614        0.0047044729
 C         -5.5418410374        1.0633031463        0.0047619094
 C         -4.2214177050        0.6041382991        0.0013864798
 C         -3.1265875777        1.4823447559        0.0017454572
 C         -1.8209597344        0.9992414101       -0.0007129947
 C         -0.6817574602        1.8348530740        0.0019028605
 N          0.5712596379        1.4334890077        0.0025270300
 C          0.7797156796        0.0813616706       -0.0014131943
 C          2.0988438733       -0.3956432132       -0.0025745506
 C          3.1757256287        0.4579666182        0.0016256303
 C          4.5390649542        0.0850591449        0.0008248050
 C          4.9747411939       -1.2633131313       -0.0019948833
 C          6.3144767297       -1.5537609803       -0.0021459412
 C          7.2731854792       -0.5342242326        0.0006074906
 C          6.8612203635        0.7781850242        0.0033728401
 C          5.5378841315        1.0367417663        0.0036748605
 C         -0.2860227904       -0.7976165891       -0.0051923979
 C         -1.6019976384       -0.4146540755       -0.0042898366
 C         -2.6875501290       -1.2843628651       -0.0053210377
 C         -4.0040269469       -0.8090353197       -0.0027289671
 N         -5.0248488206       -1.7012128118       -0.0033240934
 C         -6.2501993684       -1.2008516064        0.0008578718
 H         -7.5830996310        0.4665642213        0.0085427259
 H         -5.7465460832        2.1197012427        0.0075249301
 H         -3.2985839534        2.5428912392        0.0046068694
 H         -0.8381618812        2.9003762489        0.0046333475
 H          2.2509313888       -1.4584957630       -0.0076959065
 H          2.9614487281        1.5113515151        0.0070111958
 H          4.2524741715       -2.0593508721       -0.0017812746
 H          6.6372438979       -2.5812415030       -0.0029504299
 H          8.3231675869       -0.7748567632        0.0008339333
 H          7.5734214617        1.5906157630        0.0049685794
 H         -2.5169922510       -2.3442549699       -0.0074715261
 H         -7.0535940584       -1.9208417157        0.0036881925
  34
  -7.4410183999999999       0.19049565314339101      !mtd6
 C         -6.3581503227       -0.4962885775       -0.0086797183
 C         -5.5659183484        0.6199842174       -0.0007280986
 C         -4.1777232468        0.4554339460        0.0014242319
 C         -3.2972786185        1.5485812157        0.0084499729
 C         -1.9183918990        1.3576999447        0.0099656555
 C         -0.9840340590        2.4172190298        0.0157915969
 N          0.3259907307        2.2938549610        0.0162364117
 C          0.8211106631        1.0180398884        0.0099699165
 C          2.2159253779        0.8587731217        0.0066579471
 C          2.8566838247       -0.3577549222        0.0006103224
 C          4.2615683215       -0.5008192304       -0.0035690594
 C          4.8631872137       -1.7828378987       -0.0060307311
 C          6.2283189118       -1.9028381697       -0.0070828269
 C          7.0503567815       -0.7700653528       -0.0071309922
 C          6.4753370458        0.4799181154       -0.0053033699
 C          5.1299137639        0.5707536957       -0.0037102615
 C         -0.0341646737       -0.0671185227        0.0049961970
 C         -1.4012858571        0.0237539406        0.0047539244
 C         -2.2740622479       -1.0592122146       -0.0026487778
 C         -3.6618207932       -0.8782269756       -0.0048065842
 N         -4.4672514515       -1.9687643531       -0.0128758579
 C         -5.7713070391       -1.7433367404       -0.0146725092
 H         -7.4313984874       -0.4011741241       -0.0109689126
 H         -5.9928469024        1.6077172413        0.0039453653
 H         -3.6934545031        2.5472622931        0.0124222577
 H         -1.3647717511        3.4246267230        0.0199545436
 H          2.8113264891        1.7530286906        0.0093271305
 H          2.2573973079       -1.2498758212       -0.0008402891
 H          4.2361802904       -2.6569799364       -0.0064396575
 H          6.6784685168       -2.8814002768       -0.0086858234
 H          8.1222264312       -0.8762182526       -0.0079335599
 H          7.0803212409        1.3746030397       -0.0061514892
 H         -1.8795761889       -2.0576383217       -0.0077352661
 H         -6.4016301151       -2.6189319003       -0.0228225884
  34
  -7.4399203199999997        5.9599476151274047E-002 !mtd3
 C         -6.3445679975       -0.5404240081       -0.0019598647
 C         -5.5666085291        0.5860427500        0.0012496590
 C         -4.1764401903        0.4389645908       -0.0010854146
 C         -3.3099545823        1.5432771456        0.0036756956
 C         -1.9287981680        1.3694346201        0.0044960539
 C         -1.0079873974        2.4408888411        0.0109312556
 N          0.3034076142        2.3339868929        0.0130967641
 C          0.8151562221        1.0645547003        0.0079127364
 C          2.2120394433        0.9207676274        0.0074286000
 C          2.8556646011       -0.2956226567        0.0028810949
 C          4.2563210348       -0.4868205532        0.0009937638
 C          5.1861236833        0.5832297208       -0.0000045678
 C          6.5327134334        0.3259166038       -0.0046360369
 C          7.0163796059       -0.9872092130       -0.0085577303
 C          6.1232116879       -2.0334024630       -0.0076663219
 C          4.8043859317       -1.7531264673       -0.0030891383
 C         -0.0265206982       -0.0310827912        0.0023368205
 C         -1.3946571709        0.0424733130        0.0001721599
 C         -2.2534032345       -1.0516203952       -0.0055528303
 C         -3.6433648794       -0.8879015119       -0.0062799476
 N         -4.4349401255       -1.9885396968       -0.0095882818
 C         -5.7418533386       -1.7798173052       -0.0069826648
 H         -7.4189461829       -0.4589452263        0.0004338462
 H         -6.0059556259        1.5683162672        0.0058124178
 H         -3.7188152186        2.5368079900        0.0077327119
 H         -1.4020071321        3.4432080263        0.0152085237
 H          2.7892034716        1.8256730861        0.0120774217
 H          2.2469955557       -1.1818716302        0.0008411996
 H          4.8347863819        1.5988774161        0.0005136301
 H          7.2317481076        1.1456489374       -0.0061777279
 H          8.0767271986       -1.1767856014       -0.0131214611
 H          6.4606641477       -3.0595151557       -0.0108693640
 H         -1.8458713588       -2.0448533026       -0.0092724431
 H         -6.3605675400       -2.6636702116       -0.0074063827
