  12
         -2.17220063
 N         -2.5574979420       -0.3133336322       -0.4645643928
 C         -1.3863479496       -0.0335829485       -0.0586665275
 C         -0.3219311230       -0.9147163797        0.5383557968
 C          0.5084019115        0.3848317527        0.5997336428
 O         -0.6024271938        1.1125332725        0.0202023317
 C          1.7418683306        0.3766876833       -0.2619731106
 O          2.4802478266       -0.5583907564       -0.3349948071
 H         -2.9024175206       -1.2351168149       -0.4183759687
 H          0.0835235933       -1.6513839697       -0.1620171965
 H         -0.5921392880       -1.3441679644        1.5088751856
 H          0.6991399858        0.7544201015        1.6249994309
 H          1.9860461655        1.2600317231       -0.8417397897
