12
 energy: -22.110114249507 gnorm: 0.000112273998 xtb: 6.7.1 (edcfbbe)
N           -2.52416265579176       -0.08121238318457       -0.47248339024229
C           -1.36266840436453       -0.04564545427775       -0.02598882284432
C           -0.29640660700149       -0.98775857233026        0.51451030663384
C            0.51107023665079        0.32509226271631        0.64176306759316
O           -0.59976767679803        1.07191193093435        0.11815487284960
C            1.72423984233592        0.37085185866250       -0.24799092718833
O            2.82582449448695        0.04286762779278        0.09039384199327
H           -2.94879140377820       -1.00075923959993       -0.51010462045848
H            0.09083366712704       -1.71055070315678       -0.20099352495490
H           -0.53561979766004       -1.48103594455039        1.45324065987491
H            0.75747711438171        0.62434248381917        1.66451111570833
H            1.49443798671161        0.70970820047455       -1.27517798406474
