  49
        -10.35308896
 C         -5.7080115532        0.2730165912       -1.5988830483
 S         -4.5740810175       -1.0113019857       -1.8497899769
 C         -3.6028552281       -0.5708504212       -0.4627509099
 C         -2.4198832872       -1.3002790244       -0.0781349644
 C         -1.9050330353       -2.3370165684       -0.7853100612
 C         -0.7082726864       -2.8350935380       -0.1280906649
 C          0.4082121743       -3.5251232723       -0.4646578801
 C          1.4256676067       -3.3289209600        0.6436296752
 C          0.7913293094       -2.2927224173        1.5800545696
 C          2.5561360957       -2.3230558811        0.4473386792
 C         -0.5301620409       -2.1303732280        1.1514815594
 C         -1.5701993830       -1.0421952316        1.1544001656
 C          3.7249723074       -1.6886386326       -0.0764690716
 C          4.7087671185       -1.7458457020       -1.1208912082
 N          5.3692676653       -0.5999037952       -1.1506876389
 C          4.9402325164        0.3504044071       -0.0727853208
 C          3.8213475675       -0.4265776142        0.5520243606
 C          2.7320220611       -0.1845755474        1.3728641701
 C          2.3759064341        1.1048909890        1.9180854496
 C          2.7520005822        2.2895394650        1.3954462180
 C          3.5291905489        2.5331741930        0.1803752454
 C          3.4754232717        3.7223251077       -0.5336285574
 N          4.3150473355        3.6366752787       -1.6023633772
 C          4.9244542398        2.4099274818       -1.5919590191
 C          4.4630775235        1.7014499258       -0.5109570207
 C          1.9739666526       -1.4164656013        1.3433491772
 C         -4.1676717831        0.5411853059        0.1437172827
 C         -3.7416828661        1.3177807449        1.3360183832
 C         -4.5048517836        2.3567918679        1.6743841448
 Si        -5.8956403926        2.4632637664        0.4765046900
 C         -5.3626045304        1.0005227424       -0.5174353497
 H         -6.5630745614        0.4616416111       -2.2182002976
 H         -2.2964717630       -2.7055928056       -1.7148608654
 H          0.5893340069       -3.9901411786       -1.4166916652
 H          1.7284941075       -4.2553971497        1.1625152192
 H         -1.0916064520       -0.0588566378        1.1000046210
 H         -2.1746525943       -1.0886374771        2.0663721764
 H          4.8376224599       -2.5556743545       -1.8160215318
 H          6.1038684731       -0.2701203053       -1.7819965909
 H          5.7601131269        0.4642671118        0.6509545861
 H          1.7201823552        1.0964350698        2.7729106452
 H          2.3852786132        3.1808509958        1.8780982790
 H          2.8651603697        4.5766236354       -0.2881558519
 H          4.4757694656        4.3691537817       -2.2993560848
 H          5.6549418348        2.0688861350       -2.3074887079
 H         -2.8545952062        1.0604487404        1.8890461689
 H         -4.3240715875        3.0148658402        2.5019702486
 H         -5.8106464936        3.6972918074       -0.3330693510
 H         -7.1899695038        2.1939133150        1.1376959874
