49
 energy: -77.636449610294 gnorm: 0.000328438599 xtb: 6.5.1 (fef0646)
C           -6.22019885781630       -0.29240603625095       -1.17141462564644
S           -5.01660000464319       -1.51191336857753       -1.40342925597522
C           -3.90873498187961       -0.70421797507642       -0.30396751159028
C           -2.62489973969106       -1.28809046084209       -0.07847283570703
C           -2.14195993987143       -2.38793714653723       -0.71367378419021
C           -0.81981139691054       -2.68217064038823       -0.24521982752389
C            0.25637315720592       -3.44462426143917       -0.56499955138498
C            1.33744880814545       -3.12533373543188        0.41329476194653
C            0.76276195439390       -1.93362570693077        1.21222998682526
C            2.52887315807947       -2.17165533694036        0.25874878287753
C           -0.49473693042874       -1.70219781977807        0.78663765424339
C           -1.61592688400154       -0.72686208098061        0.90599135759566
C            3.71336654459413       -1.64244100643983       -0.30400112453359
C            4.67911392827362       -1.69441648285374       -1.27104663403273
N            5.48934398605729       -0.61134243068255       -1.20551020376252
C            5.17283224861549        0.24497059829442       -0.06634269896291
C            3.93606653104743       -0.40158273031494        0.43218088511386
C            2.91901038600916       -0.11173733691089        1.30474853495193
C            2.76776524366563        1.11933605400380        2.02282235468315
C            3.32286947695729        2.28140118741849        1.63161502755232
C            4.08994359873527        2.54019906071094        0.43059783425172
C            4.13268587947106        3.77808900971603       -0.18045341531433
N            4.86837985714506        3.68829927686140       -1.31484420021712
C            5.33560287780692        2.41794801114648       -1.44853562587873
C            4.88024532258727        1.67765995625942       -0.39088059281041
C            2.05303011223627       -1.26359487284794        1.19306955215366
C           -4.49361456801519        0.44322671690527        0.18795896069341
C           -4.03118493842786        1.46245396815327        1.10029378302716
C           -4.88676438635107        2.46895454048517        1.34614692624269
Si          -6.50357398684254        2.26496835210026        0.40329867093343
C           -5.81847429549070        0.67094002818990       -0.31769601513144
H           -7.15186775673067       -0.38239971131081       -1.69509679256720
H           -2.66804541261422       -2.94805311529029       -1.46726411524153
H            0.30103520342533       -4.24695335276866       -1.27933817992717
H            1.62458469710108       -4.01029184048455        0.99016893947002
H           -1.30366500556522        0.28163111559911        0.61899105605283
H           -2.02506094887280       -0.68368233982054        1.91893826821564
H            4.82969198711341       -2.42619929227095       -2.04621719680528
H            6.34397077648057       -0.52099704404451       -1.72590882417684
H            5.99848133809891        0.19031243546672        0.66425677277937
H            2.12172575114793        1.10893285456616        2.89081916557846
H            3.10611513290566        3.17225791948996        2.20880677400633
H            3.65747538868100        4.69445181563447        0.10899592138231
H            5.05195114743861        4.44522107270593       -1.95181936890701
H            5.94733429107157        2.13401815983614       -2.28218688367235
H           -3.05155562525930        1.40218915401631        1.54751106778825
H           -4.62312078348713        3.27412142961674        2.01383040245047
H           -6.73969198403046        3.29594594749757       -0.61031202533059
H           -7.67684228337339        2.05916404162680        1.25528453507889
