  15
         -2.68120563
 C         -3.3559441620       -0.3369362768        0.1658432407
 C         -1.9811336257       -0.1031385516       -0.0394944030
 C         -0.7968696579        0.0947275826       -0.2161961157
 C          0.5991147620        0.3265432050       -0.4113644000
 C          1.0779400121        1.6333417081        0.2229037839
 C          1.4416585550       -0.8174859857        0.0812672348
 O          2.6364213170       -0.8094827279        0.0990039863
 H         -3.5212030686       -1.1007085614        0.9287522523
 H         -3.8431975193       -0.6780229132       -0.7501149004
 H         -3.8703327059        0.5692297603        0.4928333132
 H          0.7614310397        0.3913959285       -1.5015692152
 H          0.9288274621        1.6068139816        1.3022546352
 H          0.5338279210        2.4935363392       -0.1688805776
 H          2.1427574850        1.7867432685        0.0426781066
 H          0.9488990680       -1.7175361507        0.4304793801
