  11
  -2.23533811000000        1.00000000000000      !
 C          1.4024184513       -0.0000109628       -0.0000355618
 C          0.6918063861        1.1757967789        0.0000210584
 C         -0.6837635905        1.1191980250       -0.0000070879
 N         -1.3880509930        0.0000100018       -0.0000096438
 C         -0.6837808963       -1.1191880969       -0.0000031481
 C          0.6917871372       -1.1758066934        0.0000133600
 H          2.4806439714       -0.0000187986       -0.0000256358
 H          1.2022183536        2.1252802935        0.0000551338
 H         -1.2493922635        2.0395068779        0.0000806712
 H         -1.2494225447       -2.0394814345        0.0000213903
 H          1.2021839368       -2.1252954544        0.0001380511
