11
 energy: -16.156823220212 gnorm: 0.000022913681 xtb: 6.7.1 (edcfbbe)
C            1.40799726646329       -0.00001019793334        0.00002107961009
C            0.70095573114755        1.19240557922399        0.00001759598218
C           -0.68514612155383        1.13374680617394        0.00001835190247
N           -1.36632094389046        0.00001158864209        0.00002366087910
C           -0.68516392391519       -1.13373433613471        0.00002664239595
C            0.70093701565714       -1.19241488487073        0.00002510029541
H            2.48901579264951       -0.00001866640306        0.00002010529395
H            1.21083400837207        2.14379432821284        0.00001684810505
H           -1.28361458905974        2.03626597299719        0.00002302726897
H           -1.28364667313815       -2.03624403272139        0.00002976015508
H            1.21080038566782       -2.14381162068683        0.00002641551174
