  48
        -10.66771844
 N          6.6465976773        0.9836664196       -0.1168121714
 C          7.9701930093        0.6977896582       -0.2296522307
 C          8.1112625734       -0.6662314497       -0.3905225583
 C          6.8403560139       -1.2275059558       -0.3763917686
 C          5.9205467038       -0.1940048824       -0.2048325642
 C          4.4737757766       -0.3048686436       -0.1332003580
 C          3.8218347778       -1.5391889102       -0.2922455532
 C          2.4611517085       -1.6353328245       -0.2250639917
 C          1.6481469691       -0.5144069329        0.0251285297
 C          2.3039415227        0.7455893507        0.1225242151
 C          3.6901233807        0.8215982101        0.0599160266
 C          1.4960393941        1.9358077944        0.2321462811
 C          1.8126145801        3.2893461457        0.3246302056
 O          0.6743861403        4.0326548521        0.3625511609
 C         -0.3733702997        3.1698274544        0.2900406827
 C          0.0952384461        1.8612664370        0.2047758146
 C         -0.5845182083        0.5893021109        0.1299449963
 C         -1.9460042737        0.4944703314        0.0889521218
 C         -7.1377360066       -0.6179075995       -0.2320345090
 C         -8.3909411294       -0.2012730598       -0.3472442820
 N         -8.3839431506        1.2078680582       -0.4030272236
 C         -7.1143122997        1.6344762879       -0.3194049042
 C         -6.2709550076        0.4922645256       -0.2081246943
 C         -4.8735895413        0.5015371061       -0.1071469971
 C         -4.1174894000       -0.6410493684       -0.0127329367
 C         -2.7182683002       -0.6437151882        0.0706980430
 C         -1.9568902796       -1.8635122669        0.1622090405
 C         -2.3483481058       -3.1964661848        0.2924073719
 O         -1.2555266404       -3.9838522285        0.4487259841
 C         -0.1664944362       -3.1786835093        0.4171398353
 C         -0.5364538038       -1.8407165327        0.2077787350
 C          0.2039039465       -0.6027972818        0.1218779455
 H          6.2481879366        1.9160095448        0.0103899477
 H          8.7680775461        1.4242435143       -0.2014873896
 H          9.0406891830       -1.2007013469       -0.5072753640
 H          6.6125379501       -2.2748415603       -0.4831464345
 H          4.4093543638       -2.4181154262       -0.4901762715
 H          2.0001220104       -2.5783185141       -0.4442204731
 H          4.1592298543        1.7825875758        0.1476736759
 H          2.8114714698        3.7028255442        0.3563127542
 H         -1.4154212571        3.4606908944        0.2998666358
 H         -9.2697159898       -0.8303330582       -0.3911374075
 H         -9.2332274142        1.7714071923       -0.4926911527
 H         -6.7928184683        2.6629090180       -0.3352339578
 H         -4.3714564177        1.4516888628       -0.1106182755
 H         -4.6279804073       -1.5866648714       -0.0134092656
 H         -3.3669725736       -3.5593957537        0.2982672771
 H          0.8239657624       -3.5606602273        0.6166631008
