  48
        -10.66771844
 N          6.6465976773        0.9836664196       -0.1168121714
 C          7.9701930093        0.6977896582       -0.2296522307
 C          8.1112625734       -0.6662314497       -0.3905225583
 C          6.8403560139       -1.2275059558       -0.3763917686
 C          5.9205467038       -0.1940048824       -0.2048325642
 C          4.4737757766       -0.3048686436       -0.1332003580
 C          3.8218347778       -1.5391889102       -0.2922455532
 C          2.4611517085       -1.6353328245       -0.2250639917
 C          1.6481469691       -0.5144069329        0.0251285297
 C          2.3039415227        0.7455893507        0.1225242151
 C          3.6901233807        0.8215982101        0.0599160266
 C          1.4960393941        1.9358077944        0.2321462811
 C          1.8126145801        3.2893461457        0.3246302056
 O          0.6743861403        4.0326548521        0.3625511609
 C         -0.3733702997        3.1698274544        0.2900406827
 C          0.0952384461        1.8612664370        0.2047758146
 C         -0.5845182083        0.5893021109        0.1299449963
 C         -1.9460042737        0.4944703314        0.0889521218
 C         -7.1377360066       -0.6179075995       -0.2320345090
 C         -8.3909411294       -0.2012730598       -0.3472442820
 N         -8.3839431506        1.2078680582       -0.4030272236
 C         -7.1143122997        1.6344762879       -0.3194049042
 C         -6.2709550076        0.4922645256       -0.2081246943
 C         -4.8735895413        0.5015371061       -0.1071469971
 C         -4.1174894000       -0.6410493684       -0.0127329367
 C         -2.7182683002       -0.6437151882        0.0706980430
 C         -1.9568902796       -1.8635122669        0.1622090405
 C         -2.3483481058       -3.1964661848        0.2924073719
 O         -1.2555266404       -3.9838522285        0.4487259841
 C         -0.1664944362       -3.1786835093        0.4171398353
 C         -0.5364538038       -1.8407165327        0.2077787350
 C          0.2039039465       -0.6027972818        0.1218779455
 H          6.2481879366        1.9160095448        0.0103899477
 H          8.7680775461        1.4242435143       -0.2014873896
 H          9.0406891830       -1.2007013469       -0.5072753640
 H          6.6125379501       -2.2748415603       -0.4831464345
 H          4.4093543638       -2.4181154262       -0.4901762715
 H          2.0001220104       -2.5783185141       -0.4442204731
 H          4.1592298543        1.7825875758        0.1476736759
 H          2.8114714698        3.7028255442        0.3563127542
 H         -1.4154212571        3.4606908944        0.2998666358
 H         -9.2697159898       -0.8303330582       -0.3911374075
 H         -9.2332274142        1.7714071923       -0.4926911527
 H         -6.7928184683        2.6629090180       -0.3352339578
 H         -4.3714564177        1.4516888628       -0.1106182755
 H         -4.6279804073       -1.5866648714       -0.0134092656
 H         -3.3669725736       -3.5593957537        0.2982672771
 H          0.8239657624       -3.5606602273        0.6166631008
  48
        -10.66760429
 N          6.6429932848        0.9774222002        0.1562790833
 C          7.9598182079        0.6952496280        0.3381727347
 C          8.0890313653       -0.6603847437        0.5658851722
 C          6.8180428640       -1.2197427385        0.5217111823
 C          5.9096393302       -0.1936693182        0.2651997693
 C          4.4662162837       -0.3052302041        0.1444319438
 C          3.8103674555       -1.5395231561        0.2863362686
 C          2.4520372132       -1.6360216493        0.1845060568
 C          1.6457876861       -0.5143796758       -0.0825092496
 C          2.3036847930        0.7449348058       -0.1709005683
 C          3.6881500979        0.8206473393       -0.0745308022
 C          1.4979146587        1.9353125234       -0.2966785160
 C          1.8158297696        3.2883556531       -0.3917018047
 O          0.6785752429        4.0325998216       -0.4400871067
 C         -0.3703408738        3.1708684621       -0.3725360897
 C          0.0965384437        1.8621963794       -0.2799673561
 C         -0.5850291919        0.5912557239       -0.2019093320
 C         -1.9463181441        0.4965909209       -0.1504611678
 C         -7.1235446105       -0.6214798176        0.3377595217
 C         -8.3705263313       -0.2060578408        0.5104606213
 N         -8.3631340338        1.2032492973        0.5631703075
 C         -7.0991776135        1.6310465363        0.4200136673
 C         -6.2602848480        0.4897507815        0.2719930157
 C         -4.8681299140        0.5003297826        0.1149867056
 C         -4.1143978080       -0.6415487657       -0.0043164759
 C         -2.7176914481       -0.6424358107       -0.1218775411
 C         -1.9574239785       -1.8621097913       -0.2263656878
 C         -2.3482938773       -3.1949452410       -0.3594707987
 O         -1.2558712557       -3.9808752140       -0.5266564848
 C         -0.1671922043       -3.1747992767       -0.5013518118
 C         -0.5377215638       -1.8385342414       -0.2833619274
 C          0.2027265319       -0.6012229353       -0.1935918886
 H          6.2539133110        1.9034447474       -0.0316404370
 H          8.7603754784        1.4185980081        0.3083310601
 H          9.0109896254       -1.1895513670        0.7478972333
 H          6.5809639132       -2.2604738617        0.6656614984
 H          4.3925983095       -2.4189729997        0.4969622692
 H          1.9859004861       -2.5797322899        0.3896392682
 H          4.1601914025        1.7814116718       -0.1481756040
 H          2.8148122732        3.7019262773       -0.4181119285
 H         -1.4121403009        3.4622339501       -0.3917870278
 H         -9.2448668990       -0.8366601968        0.5989876368
 H         -9.2072920390        1.7669859571        0.6915741948
 H         -6.7794682185        2.6601771245        0.4220109838
 H         -4.3664997662        1.4506985889        0.1007635667
 H         -4.6236236178       -1.5877174283        0.0126655063
 H         -3.3664242651       -3.5593352745       -0.3610443018
 H          0.8230396947       -3.5504504073       -0.7141052307
  48
        -10.66747043
 N          6.8095186087       -1.2345875469        0.2795289516
 C          8.0843447035       -0.7651701445        0.2381083314
 C          8.0402580785        0.6027126661        0.0562569528
 C          6.7042247803        0.9769436241       -0.0162053374
 C          5.9303620904       -0.1744386053        0.1241120367
 C          4.4800304315       -0.2646717226        0.1094518355
 C          3.8342812879       -1.4964008718        0.2998659953
 C          2.4726677487       -1.5962242621        0.2730992023
 C          1.6509087123       -0.4794473973        0.0343735020
 C          2.3009094351        0.7818400473       -0.0865407346
 C          3.6887777066        0.8614555581       -0.0653528097
 C          1.4856865381        1.9686492892       -0.1827698725
 C          1.7932277171        3.3233798089       -0.2884803040
 O          0.6510354944        4.0611214773       -0.3088088223
 C         -0.3909515857        3.1935629570       -0.2145780019
 C          0.0857397304        1.8875976179       -0.1318674538
 C         -0.5877198838        0.6128158483       -0.0501927313
 C         -1.9491432313        0.5133551726       -0.0142658151
 C         -7.1433488490       -0.6240713369        0.1511246557
 C         -8.4033531472       -0.2137195292        0.1878952391
 N         -8.4088141947        1.1960335192        0.2013866449
 C         -7.1394772164        1.6302364115        0.1712781012
 C         -6.2836840735        0.4922548366        0.1375369860
 C         -4.8833346733        0.5093767053        0.0949535440
 C         -4.1182051187       -0.6304452888        0.0545054050
 C         -2.7172793890       -0.6274887164        0.0067709134
 C         -1.9503246333       -1.8448816142       -0.0633463084
 C         -2.3375373762       -3.1807867981       -0.1748203710
 O         -1.2424267969       -3.9667142623       -0.3192796235
 C         -0.1562310374       -3.1573186554       -0.3016044669
 C         -0.5299803629       -1.8173975184       -0.1105718532
 C          0.2057466505       -0.5757062500       -0.0387891878
 H          6.5384805214       -2.2128192291        0.3976526436
 H          8.9731985171       -1.3703228638        0.3318280926
 H          8.8904266108        1.2621779175       -0.0179840419
 H          6.3360966118        1.9794842812       -0.1564086474
 H          4.4293566281       -2.3724015583        0.4848175782
 H          2.0210415078       -2.5384110554        0.5135528031
 H          4.1547946531        1.8221577833       -0.1762196791
 H          2.7889599559        3.7417982373       -0.3446877949
 H         -1.4346180517        3.4787497531       -0.2121989690
 H         -9.2789977723       -0.8483443543        0.2093818172
 H         -9.2648005937        1.7553787001        0.2343026718
 H         -6.8280855248        2.6619432643        0.1702363365
 H         -4.3869694648        1.4628249031        0.0902454360
 H         -4.6241848393       -1.5785888567        0.0574824337
 H         -3.3549067406       -3.5472927844       -0.1768840184
 H          0.8342218153       -3.5391282713       -0.5008315729
  48
        -10.66726638
 N          6.7707926318       -1.2114031700        0.5746276945
 C          8.0413710494       -0.7336864244        0.6380253491
 C          8.0105924136        0.6239021499        0.3888032999
 C          6.6868309951        0.9835249114        0.1683682180
 C          5.9072609971       -0.1666638676        0.2849346028
 C          4.4639126863       -0.2662814242        0.1486109154
 C          3.8098590236       -1.4977242358        0.3094424601
 C          2.4527005948       -1.6010670555        0.2003582590
 C          1.6453497681       -0.4871286890       -0.0931635009
 C          2.3003830039        0.7721766968       -0.2036108155
 C          3.6844217573        0.8543861812       -0.0998578442
 C          1.4902065151        1.9568417486       -0.3580791958
 C          1.8031949923        3.3085464500       -0.4846643634
 O          0.6635258480        4.0474692946       -0.5528109509
 C         -0.3824070526        3.1839001060       -0.4665434192
 C          0.0889634734        1.8794475219       -0.3426032100
 C         -0.5887718297        0.6083974484       -0.2392222645
 C         -1.9497064300        0.5103801230       -0.1839048543
 C         -7.1167683487       -0.6177472942        0.3794284406
 C         -8.3629615169       -0.2043163643        0.5622388597
 N         -8.3610023858        1.2057340940        0.5895384469
 C         -7.1009800282        1.6359367722        0.4210718551
 C         -6.2593694035        0.4956136147        0.2812521736
 C         -4.8695392519        0.5087378369        0.1049135839
 C         -4.1128371777       -0.6323292131       -0.0030097764
 C         -2.7170621077       -0.6305521610       -0.1312817776
 C         -1.9528800991       -1.8494298872       -0.2150799422
 C         -2.3394435250       -3.1858130393       -0.3227488632
 O         -1.2444595922       -3.9710671349       -0.4759755556
 C         -0.1584085356       -3.1610908271       -0.4660691471
 C         -0.5333167306       -1.8222360244       -0.2730101049
 C          0.2029383991       -0.5809281805       -0.2069462483
 H          6.4926223441       -2.1836888120        0.7213630123
 H          8.9182205730       -1.3259094446        0.8511367687
 H          8.8612813646        1.2865988010        0.3712152666
 H          6.3311117097        1.9762399380       -0.0508427867
 H          4.3934041397       -2.3702576945        0.5414767753
 H          1.9881416202       -2.5421288443        0.4207067997
 H          4.1543630074        1.8153914615       -0.1903956923
 H          2.8008562801        3.7246203527       -0.5206524754
 H         -1.4252210093        3.4708741087       -0.4947151593
 H         -9.2332414763       -0.8368898606        0.6737725123
 H         -9.2055796796        1.7674218389        0.7239964471
 H         -6.7856337365        2.6662248617        0.4014269684
 H         -4.3717856530        1.4605601069        0.0686341611
 H         -4.6183238160       -1.5798497735        0.0361185438
 H         -3.3565846112       -3.5528995667       -0.3167663693
 H          0.8329339316       -3.5374731788       -0.6724957227
  48
        -10.66415323
 N          6.7682718324        0.6698561147        0.0962245995
 C          8.0578350987        0.2518520443        0.1922694172
 C          8.0625190067       -1.1173267488        0.3694701663
 C          6.7412245480       -1.5464548978        0.3817021755
 C          5.9282750447       -0.4268071923        0.2107905630
 C          4.4769137247       -0.3921887427        0.1550349032
 C          3.7071570158       -1.5577833160        0.3071488094
 C          2.3435865148       -1.5200428106        0.2412102717
 C          1.6453321735       -0.3225725796       -0.0006425721
 C          2.4201878841        0.8690046226       -0.0828624706
 C          3.8073198758        0.8081047453       -0.0231161072
 C          1.7317185802        2.1334950184       -0.1778098291
 C          2.1773512893        3.4518619128       -0.2438206512
 O          1.1163379884        4.3016348730       -0.2749543651
 C         -0.0102043074        3.5426029117       -0.2260247524
 C          0.3297531172        2.1937274752       -0.1619951368
 C         -0.4686851305        0.9913275734       -0.1157259955
 C         -1.8323467492        1.0199148814       -0.0974682357
 C         -7.0380362419        0.8674041373        0.1474824996
 C         -8.3533727240        0.7607574520        0.2717949787
 N         -8.6688040939       -0.5992115935        0.4703981069
 C         -7.5299330543       -1.3095612638        0.4640479592
 C         -6.4473771884       -0.4067718742        0.2593251759
 C         -5.0892904899       -0.7433242676        0.1853604067
 C         -4.1017559661        0.1956801371        0.0049598355
 C         -2.7182573053       -0.0340067951       -0.0963141936
 C         -2.0762002906       -1.3257930209       -0.2219145081
 C         -2.5612693972       -2.6137153261       -0.4681892566
 O         -1.5338213912       -3.4805779881       -0.6367432133
 C         -0.3861625805       -2.7737942180       -0.5213096694
 C         -0.6549447209       -1.4255388901       -0.2413436527
 C          0.2002769523       -0.2692194968       -0.1104859576
 H          6.4666372383        1.6368871911       -0.0385057609
 H          8.9244837129        0.8928514715        0.1364440419
 H          8.9353900947       -1.7413485556        0.4783655562
 H          6.4084313479       -2.5641588345        0.4981490267
 H          4.2061841901       -2.4923359217        0.4925759227
 H          1.7914566246       -2.4150302765        0.4530034128
 H          4.3694908641        1.7184721479       -0.1042434466
 H          3.2112017011        3.7688284874       -0.2627281891
 H         -1.0187484722        3.9345168678       -0.2394211933
 H         -9.0644707864        1.5747320676        0.2281201125
 H         -9.6243215553       -0.9441693958        0.5924425839
 H         -7.4536977715       -2.3770112477        0.5906599769
 H         -4.8268036289       -1.7719359820        0.3309991110
 H         -4.4137731361        1.2251177419       -0.0244980161
 H         -3.5920864978       -2.9096195053       -0.5920950500
 H          0.5762657859       -3.2190991011       -0.7267940538
  48
        -10.66385231
 N          6.6944519460       -1.5416840403       -0.3943773637
 C          8.0091488327       -1.1976949724       -0.4009471888
 C          8.1031736729        0.1729363489       -0.2622864485
 C          6.8125154389        0.6777095918       -0.1644633844
 C          5.9273156107       -0.3965143144       -0.2476124566
 C          4.4763004518       -0.3459874841       -0.1848517306
 C          3.7063292097       -1.4958447932       -0.4207795675
 C          2.3429752057       -1.4644595925       -0.3499708608
 C          1.6454261870       -0.2887246818       -0.0171274781
 C          2.4196764283        0.8945873483        0.1499436931
 C          3.8071542140        0.8399720788        0.0812851003
 C          1.7278989359        2.1467684395        0.3420629491
 C          2.1699851820        3.4583512635        0.5009871873
 O          1.1069665590        4.3006368061        0.6005628946
 C         -0.0176638334        3.5437486627        0.5027774842
 C          0.3256194406        2.2041968808        0.3385223961
 C         -0.4710389266        1.0072444726        0.2036813746
 C         -1.8348978433        1.0342436566        0.1899382766
 C         -7.0443880249        0.8681980901       -0.0795203208
 C         -8.3580002830        0.7613525541       -0.2209570849
 N         -8.6599280326       -0.5782176167       -0.5420990867
 C         -7.5142017929       -1.2756777956       -0.5934260662
 C         -6.4414799439       -0.3858900053       -0.3001024424
 C         -5.0811315680       -0.7172633482       -0.2442570810
 C         -4.1021690253        0.2105531066        0.0212814664
 C         -2.7177239653       -0.0191553828        0.1086020266
 C         -2.0721388516       -1.3149433232        0.1372805763
 C         -2.5544006685       -2.6178363946        0.2938990290
 O         -1.5247229131       -3.4926534824        0.3963214407
 C         -0.3786566235       -2.7774707682        0.3274207003
 C         -0.6508482497       -1.4130726168        0.1456532373
 C          0.2008454739       -0.2474148779        0.1012330301
 H          6.3267067543       -2.4932147555       -0.4601328951
 H          8.8319140483       -1.8899265708       -0.4953846459
 H          9.0150707718        0.7483205004       -0.2327452563
 H          6.5479288345        1.7154200845       -0.0478272079
 H          4.2059320050       -2.4111736483       -0.6826065371
 H          1.7909644442       -2.3412243797       -0.6280571116
 H          4.3697618829        1.7420298008        0.2310564347
 H          3.2031691595        3.7763303613        0.5355205638
 H         -1.0280263314        3.9287672932        0.5460939830
 H         -9.0766993542        1.5627142678       -0.1129214330
 H         -9.6110590156       -0.9168171570       -0.7080604543
 H         -7.4266376499       -2.3252891054       -0.8212450397
 H         -4.8085513321       -1.7274286526       -0.4764452358
 H         -4.4211150647        1.2321180801        0.1335135523
 H         -3.5844067130       -2.9218818241        0.4056501049
 H          0.5855722469       -3.2327165199        0.5005199726
  48
        -10.66379136
 N          6.6667584821       -1.5449407007        0.5507403019
 C          7.9782647299       -1.1978728960        0.6291337784
 C          8.0810947182        0.1666484938        0.4457864155
 C          6.7990619931        0.6646222296        0.2493210135
 C          5.9102157113       -0.4076830153        0.3154785515
 C          4.4643060268       -0.3586769801        0.1783575394
 C          3.6884686754       -1.5192274454        0.3258024116
 C          2.3285554280       -1.4844365787        0.2075103657
 C          1.6407922701       -0.2924792311       -0.0844258408
 C          2.4190659878        0.8960790329       -0.1758178518
 C          3.8034147907        0.8375422090       -0.0616131789
 C          1.7326622111        2.1567863819       -0.3285844617
 C          2.1799727440        3.4724870106       -0.4274118818
 O          1.1203953161        4.3213654114       -0.5050197228
 C         -0.0073691417        3.5645517601       -0.4532941934
 C          0.3304748454        2.2182167539       -0.3420491772
 C         -0.4704700725        1.0190330798       -0.2634529996
 C         -1.8342609864        1.0491837990       -0.2340463205
 C         -7.0351088042        0.8537690025        0.2387469050
 C         -8.3376669900        0.7359166340        0.4547617008
 N         -8.6173526583       -0.6173066920        0.7372851618
 C         -7.4698151867       -1.3115784209        0.6881879717
 C         -6.4180411968       -0.4055873077        0.3697602619
 C         -5.0614792651       -0.7270761514        0.2293248816
 C         -4.0984429319        0.2161647944       -0.0400529500
 C         -2.7176645450       -0.0062834179       -0.1862478977
 C         -2.0764578212       -1.3001577955       -0.2921431450
 C         -2.5645114133       -2.5916413957       -0.5115803517
 O         -1.5382993320       -3.4622829615       -0.6714548494
 C         -0.3893111985       -2.7543252177       -0.5777015889
 C         -0.6561789358       -1.4009799543       -0.3213741400
 C          0.1982774288       -0.2410373180       -0.2196897486
 H          6.2946262082       -2.4919822670        0.6449891163
 H          8.7928904535       -1.8832153948        0.8072091125
 H          8.9927383274        0.7428104557        0.4556345892
 H          6.5427256866        1.6969278020        0.0798568049
 H          4.1797711856       -2.4475871140        0.5548568546
 H          1.7690961713       -2.3751813472        0.4181439988
 H          4.3684382228        1.7467687460       -0.1430228557
 H          3.2137996818        3.7899762834       -0.4407494710
 H         -1.0162020995        3.9538900383       -0.4930955058
 H         -9.0635018629        1.5371692474        0.4205995587
 H         -9.5575219582       -0.9675985128        0.9379333787
 H         -7.3674562407       -2.3700850962        0.8625725188
 H         -4.7736911887       -1.7444277681        0.4057538891
 H         -4.4233476159        1.2406738516       -0.0910778559
 H         -3.5972006492       -2.8851231405       -0.6286669176
 H          0.5727211433       -3.2010388032       -0.7829715133
