  35
  -7.4369353900000004       0.96565923077258875      !mtd2
 C          7.9326049886        0.0692908603        0.0074880116
 N          7.6670781918        1.3351889142        0.0056515573
 C          6.3241860568        1.5784877934        0.0025719697
 C          5.5133555684        0.4719434666        0.0016747280
 S          6.5158003622       -0.9326466078        0.0048991448
 C          4.0903729732        0.4116614346       -0.0012397950
 S          3.0130319093        1.7714051369       -0.0025464659
 C          1.5871386487        0.7829535891       -0.0041091407
 C          0.2442150554        1.2422934140       -0.0045951803
 C         -0.2336416302        2.5328324414       -0.0045196269
 N         -1.5818513401        2.6783409456       -0.0034083282
 C         -2.2095330622        1.5235955446       -0.0029074847
 S         -1.1001070311        0.1638970845       -0.0043057470
 C         -3.6293825323        1.3465798776       -0.0003067996
 S         -4.8677823108        2.5876595030        0.0037425498
 C         -6.1704019598        1.4434512805        0.0037989853
 C         -5.6733986751        0.1717896411        0.0023682402
 C         -6.3176092949       -1.1582762767        0.0071561202
 C         -5.4789803223       -2.1935114185        0.0060625732
 Se        -3.6535162370       -1.6630787907       -0.0004233258
 C         -4.2466578669        0.1295217945        0.0004466430
 C          1.9419836780       -0.5677137274       -0.0037580090
 N          1.0552341318       -1.5966860191       -0.0037226894
 C          1.6330598743       -2.7588920744       -0.0032764331
 C          3.0185550296       -2.9646433015       -0.0030778819
 N          3.9095982131       -2.0211279249       -0.0027600091
 C          3.3610222583       -0.7777589423       -0.0027632143
 H          8.9368923934       -0.3133328455        0.0103076025
 H          5.9388692683        2.5885696537       -0.0016360411
 H          0.4184127616        3.3946689552       -0.0057322159
 H         -7.2111594431        1.6998273623        0.0076863428
 H         -7.3895872684       -1.2646694873        0.0106261718
 H         -5.7795927447       -3.2237456191        0.0102554104
 H          0.9773557408       -3.6167496255       -0.0048751433
 H          3.3961655521       -3.9762063189       -0.0035540721
  35
  -7.4337824000000001        3.4340769227411173E-002 !mtd5
 C          7.4769514604        1.1062905249        0.1412338857
 N          6.6987690380        2.1370326115        0.2105633739
 C          5.3797342591        1.7893734034        0.1691533913
 C          5.1155396196        0.4473546137        0.0633986258
 S          6.6199328438       -0.3971084980        0.0133393970
 C          3.8527158930       -0.2083780564       -0.0000225349
 S          2.3018465405        0.5633799685        0.0478910844
 C          1.4251320985       -0.9285059507       -0.0769774391
 C          0.0078515710       -1.0391287771       -0.0955114191
 C         -0.6951620128       -2.2155718957       -0.2028103694
 N         -2.0431920046       -2.1322719835       -0.2065183409
 C         -2.4543322143       -0.8903521361       -0.1012099702
 S         -1.1313636064        0.2642989373        0.0110062741
 C         -3.8267115392       -0.4823443385       -0.0774833805
 S         -5.2453155147       -1.5069411607       -0.1951718302
 C         -6.3517818946       -0.1787309460       -0.0736524864
 C         -5.6610230630        0.9926604607        0.0483131878
 C         -6.0912297072        2.4000034844        0.1870389314
 C         -5.1024019387        3.2879120141        0.2842235087
 Se        -3.3826454495        2.4814372625        0.2133198506
 C         -4.2447857054        0.8111626814        0.0428046849
 C          2.3194788189       -1.9995091437       -0.1562604166
 N          1.9581522616       -3.3034681464       -0.2649466714
 C          2.9773872732       -4.1063842630       -0.3200709429
 C          4.3186564103       -3.7062410769       -0.2757246089
 N          4.7217998369       -2.4774374149       -0.1744413866
 C          3.6947811034       -1.5895141601       -0.1120940424
 H          8.5487701242        1.1852890641        0.1640741373
 H          4.6013570945        2.5379219711        0.2190026225
 H         -0.1940328573       -3.1670149752       -0.2838180832
 H         -7.4198530094       -0.2677015901       -0.0922095276
 H         -7.1341164403        2.6695860803        0.2071468536
 H         -5.2398123527        4.3469176286        0.3912209855
 H          2.7499877226       -5.1584941025       -0.4057742672
 H          5.0910337528       -4.4588951784       -0.3294064462
