35
 energy: -70.454211895751 gnorm: 0.000175457367 xtb: 6.5.1 (fef0646)
C            7.88854445247694        0.25389576579874       -0.00067798839826
N            7.57668974480953        1.50145602648275       -0.00064980610566
C            6.24605583365861        1.68020610736793       -0.00052931053423
C            5.49289144318689        0.52466448921979       -0.00042320918909
S            6.55190814165339       -0.85465625056199       -0.00038766873812
C            4.08579190969506        0.37118536179586       -0.00025384890670
S            2.98218038441814        1.71210540766144       -0.00019277573946
C            1.58076307655307        0.69235778295947        0.00006198151614
C            0.25100870337708        1.16039639537161        0.00024272174093
C           -0.23729693476772        2.45515508238880        0.00018100100811
N           -1.56267526391675        2.57880073679758        0.00050164349779
C           -2.16506986951751        1.42324330299027        0.00074805482845
S           -1.07650440913807        0.03472171332389        0.00084646384014
C           -3.56403196919228        1.22998195338119        0.00117439060474
S           -4.67667297582864        2.57308174891318        0.00114234406027
C           -6.03913273030215        1.52881651267845        0.00182061537234
C           -5.68233361125324        0.20651306597325        0.00198485532967
C           -6.40353304165840       -1.02937651194474        0.00231626949251
C           -5.61785451616640       -2.12269165919716        0.00252062488183
Se          -3.76414901856601       -1.75663565321470        0.00167937509850
C           -4.26277050878630        0.04181223413919        0.00161700735737
C            1.96266174679747       -0.64997042757985        0.00012075191988
N            1.11864026129538       -1.69598903110904        0.00031379430016
C            1.67639155392393       -2.87642080736561        0.00030939900195
C            3.08334615153453       -3.05828012952872        0.00011415402056
N            3.92835116280866       -2.06399610757514       -0.00007403775828
C            3.38330845728266       -0.83176194163618       -0.00007493619731
H            8.89841607749117       -0.10438688357640       -0.00071620181994
H            5.84017321757778        2.67570606587782       -0.00051201726334
H            0.37957817404400        3.33631915517418       -0.00002899483543
H           -7.02593763462182        1.94727134921971        0.00191984481913
H           -7.47929426818123       -1.06677154635982        0.00261768798805
H           -5.95551872301945       -3.14450685615099        0.00291519218197
H            1.00783067117521       -3.72570637214208        0.00046981216980
H            3.50997524795623       -4.05162036607375        0.00012125775529
