9
 energy: -19.382502475313 gnorm: 0.000084410821 xtb: 6.7.1 (edcfbbe)
O           -1.82223904311932        1.60740776175557        0.24427841440002
C           -0.97972133951856        0.96794451678390       -0.30203130445790
C            0.02136875935191        0.07607217080002        0.45131501620154
C            1.37035566673983        0.52760771033184        0.16892150828548
N            2.42701906931434        0.89315325676014       -0.05787512986213
C           -0.12921183341879       -1.29500913410023        0.00312359731595
N           -0.25641435304271       -2.37096676853258       -0.35428341071524
H           -0.83788777329207        0.95409228474293       -1.39516256707248
H           -0.16753151271465        0.13282557835840        1.53301637130479
