  10
         -1.56602537
 C         -1.2870453719        0.6756983712        0.0000891486
 C          0.0000218019       -0.0809172591        0.0001191829
 C          1.2848430350        0.6789689638       -0.0001082842
 O          0.0021094442       -1.2836146486       -0.0000092778
 H         -2.0426309108        0.1254161453        0.5594540233
 H         -1.6531620465        0.8088631156       -1.0176477433
 H         -1.1729961062        1.6581907060        0.4581223305
 H          1.6929080279        0.7401194652        1.0081479250
 H          1.1511237631        1.6915766982       -0.3807474253
 H          2.0172568092        0.1729595531       -0.6283740143
  10
         -1.56585377
 C         -1.2829931641        0.6797259433        0.0017974167
 C         -0.0005454592       -0.0846954284       -0.0090613539
 C          1.2802723273        0.6818672058        0.0015998257
 O          0.0030051284       -1.2881609186        0.0023659405
 H         -1.3393939515        1.3671604455       -0.8421298146
 H         -1.3876970439        1.2531925757        0.9228496437
 H         -2.1254622821       -0.0078723350       -0.0652053553
 H          1.2252335358        1.5565237948       -0.6468834520
 H          2.0952605799        0.0487290701       -0.3502412628
 H          1.5232792338        1.0140490154        1.0115490120
