  10
         -1.56602537
 C         -1.2870453719        0.6756983712        0.0000891486
 C          0.0000218019       -0.0809172591        0.0001191829
 C          1.2848430350        0.6789689638       -0.0001082842
 O          0.0021094442       -1.2836146486       -0.0000092778
 H         -2.0426309108        0.1254161453        0.5594540233
 H         -1.6531620465        0.8088631156       -1.0176477433
 H         -1.1729961062        1.6581907060        0.4581223305
 H          1.6929080279        0.7401194652        1.0081479250
 H          1.1511237631        1.6915766982       -0.3807474253
 H          2.0172568092        0.1729595531       -0.6283740143
