  13
  -2.38972657000000       0.938110877536501      !
 O         -0.0631319864        1.5369967966       -0.2858741615
 C         -0.4054686399        0.3968280597        0.4915650800
 C         -1.6596245500       -0.1859840090        0.1302517818
 N         -2.6665378588       -0.6586813131       -0.1886104848
 C          0.7457611412       -0.6121742821        0.4133419605
 C          2.1323530214       -0.0996085264        0.3969434506
 N          1.5240398165       -0.6100646844       -0.8147283686
 H          0.0800332347        1.2509660310       -1.2125339905
 H         -0.4845049413        0.7694088462        1.5264106791
 H          0.5496207900       -1.5776445367        0.8959874571
 H          2.9260506311       -0.6849527189        0.8667672790
 H          2.2785540930        0.9798262249        0.4480596182
 H          1.8408722546       -1.5347165256       -1.1092469087
  13
  -2.38715755000000       6.188912246349875E-002 !
 O         -0.0573858961        1.5564272498       -0.2532157515
 C         -0.3993262606        0.3933577249        0.5000934430
 C         -1.6367110714       -0.2020694943        0.1044253414
 N         -2.6394657680       -0.6714513270       -0.2312105202
 C          0.7652087616       -0.6047212765        0.4357858179
 C          2.1413580591       -0.0737527314        0.3306022375
 N          1.5050280797       -0.6938695746       -0.8130324267
 H         -0.8531706467        2.1064294219       -0.4037265527
 H         -0.5024916485        0.7327243085        1.5452333571
 H          0.6018369748       -1.5355732451        0.9927335043
 H          2.9608169034       -0.6032484915        0.8221046134
 H          2.2666976410        1.0084062079        0.2802101863
 H          1.8284395643       -1.6361202797       -1.0418800941
