  13
         -2.38972657
 O         -0.0631319864        1.5369967966       -0.2858741615
 C         -0.4054686399        0.3968280597        0.4915650800
 C         -1.6596245500       -0.1859840090        0.1302517818
 N         -2.6665378588       -0.6586813131       -0.1886104848
 C          0.7457611412       -0.6121742821        0.4133419605
 C          2.1323530214       -0.0996085264        0.3969434506
 N          1.5240398165       -0.6100646844       -0.8147283686
 H          0.0800332347        1.2509660310       -1.2125339905
 H         -0.4845049413        0.7694088462        1.5264106791
 H          0.5496207900       -1.5776445367        0.8959874571
 H          2.9260506311       -0.6849527189        0.8667672790
 H          2.2785540930        0.9798262249        0.4480596182
 H          1.8408722546       -1.5347165256       -1.1092469087
