13
 energy: -21.457732663311 gnorm: 0.000035430618 xtb: 6.7.0 (08769fc)
O           -0.14961641129864        1.55589883482256       -0.30543205775911
C           -0.40307817495728        0.44082714075773        0.50646851223808
C           -1.63608556718838       -0.23806907196222        0.11229441785996
N           -2.58730471850622       -0.77732883179852       -0.22198890886041
C            0.73660447901570       -0.58109899027115        0.44536441407038
C            2.13772206269200       -0.11129030695887        0.37791613069773
N            1.45158867930272       -0.58030227431870       -0.80813633196667
H            0.28855987563389        1.22810587721789       -1.10762959129180
H           -0.53287115413578        0.80914632174830        1.53488187018753
H            0.51429035299175       -1.51824187206884        0.94869064218383
H            2.91190257461137       -0.71986461763659        0.82908711821942
H            2.32864120667457        0.95375804993494        0.39487829334978
H            1.73766380126430       -1.49134089726653       -1.14806111672872
