  11
  -2.13523564000000       0.251153472839262      !
 C          2.0411923868       -0.0000025685        0.0044601153
 N          0.5801012370        0.0001658833       -0.0070115670
 N         -0.1116399743       -1.1349015933       -0.0016389310
 C         -1.3459304359       -0.7070017898        0.0021925928
 C         -1.3460694371        0.7066989949        0.0022019355
 N         -0.1119721730        1.1350477158       -0.0016387742
 H          2.4139883389       -0.8377902810       -0.5792921383
 H          2.4003925376       -0.0900918346        1.0266456644
 H          2.4129952857        0.9276813095       -0.4236035220
 H         -2.2129380549       -1.3537856283        0.0068284797
 H         -2.2132417466        1.3532894357        0.0068919676
  11
  -2.13523556000000       0.251132212194452      !
 C          2.0412064224        0.0003967497        0.0044225857
 N          0.5800911537       -0.0000624075       -0.0069614326
 N         -0.1118363108       -1.1350754401       -0.0016326558
 C         -1.3460540094       -0.7069707994        0.0021907595
 C         -1.3459578774        0.7067407218        0.0021657100
 N         -0.1117699742        1.1348741648       -0.0016074947
 H          2.4137387373        0.8350838531       -0.5839440048
 H          2.4132231051       -0.9295375206       -0.4185579822
 H          2.4004645036        0.0962948687        1.0260873900
 H         -2.2131601436       -1.3536349318        0.0068067810
 H         -2.2130352769        1.3534718764        0.0067604285
  11
  -2.13522699000000       0.248865057663960      !
 C          2.0412513628       -0.0005382608        0.0022915279
 N          0.5800766664        0.0004852006       -0.0037374000
 N         -0.1113784434       -1.1346396401       -0.0008295481
 C         -1.3457834707       -0.7070428983        0.0011836010
 C         -1.3462485210        0.7066576631        0.0012268806
 N         -0.1122505858        1.1352859332       -0.0008562940
 H          2.4044853987       -0.3445113094        0.9673799107
 H          2.4111578435        1.0053276676       -0.1806019596
 H          2.4120770129       -0.6644273205       -0.7747257659
 H         -2.2126224616       -1.3540687805        0.0038066580
 H         -2.2136454275        1.3529605867        0.0034747807
  11
  -2.13522693000000       0.248849257302325      !
 C          2.0412006853        0.0008756573       -0.0012461056
 N          0.5800574396       -0.0003459065        0.0017782280
 N         -0.1120807453       -1.1353006103        0.0003262447
 C         -1.3461934513       -0.7069410957       -0.0003557522
 C         -1.3457854350        0.7067622639       -0.0003738369
 N         -0.1115183342        1.1346647296        0.0003491698
 H          2.4102019923        0.6001335609        0.8273235691
 H          2.4063839917        0.4214414978       -0.9350314703
 H          2.4108317668       -1.0164699528        0.1011746782
 H         -2.2134971514       -1.3533752503       -0.0016301296
 H         -2.2126461742        1.3536099578       -0.0023907351
