  33
         -6.77778764
 C         -5.8519319876       -0.8815615083       -1.2591517663
 C         -6.5208288635       -0.3715353298       -0.2027646886
 C         -5.6660539375        0.1662238677        0.8091609383
 C         -4.3485561315        0.0577611411        0.5143411385
 S         -4.1492128217       -0.7093160577       -1.0288743931
 C         -3.1760208753        0.5119422928        1.3347131525
 C         -2.4163813382        1.6312083336        0.6467629681
 C         -1.1945484319        1.1859552670        0.3571681251
 Se         0.4084281596        1.7810912513       -0.4903993947
 C          1.1330597066        0.0495192692       -0.0869876470
 C          0.2900510112       -0.7674680277        0.5778700138
 S          0.9780456504       -2.3947691188        0.9458965805
 C          2.2742007315       -2.1036613009       -0.2535121162
 C          3.1408712602       -2.3492228044       -1.2533775556
 C          3.4157715198       -0.8779136299       -1.5329154299
 C          4.5364636141       -0.1949423014       -0.7452457397
 C          5.7935768460        0.3073973229       -0.4432115848
 O          5.7922727481        0.8116964956        0.8262802784
 C          4.5385194028        0.6323090942        1.3373905600
 C          3.7374791325        0.0113791453        0.3914726615
 C          2.4954448426       -0.6079449048       -0.2718888436
 C         -1.0261666013       -0.1776191148        0.8563922760
 C         -2.1447993699       -0.5877973556        1.4797542597
 H         -6.2971673615       -1.3324636085       -2.1256621786
 H         -7.5986520538       -0.3657414157       -0.1269133696
 H         -6.0301478568        0.6152178805        1.7205761355
 H         -2.8038219923        2.5988759055        0.3809786362
 H          3.3526360033       -3.2689206853       -1.7830173061
 H          3.0438180330       -0.4151017277       -2.4680919696
 H          6.6476943643        0.3013329754       -1.1065000111
 H          4.2213941621        0.9336243502        2.3264137716
 H         -3.5156432361        0.8426703794        2.3292918612
 H         -2.2966996004       -1.5614229689        1.9103228316
