33
 energy: -59.348317945684 gnorm: 0.000664094436 xtb: 6.5.1 (fef0646)
C           -5.93087790282814       -0.70649410409782       -1.23769728616275
C           -6.57818128799234       -0.24949265214736       -0.13824747958582
C           -5.68988513269549        0.17389154973268        0.87745965901928
C           -4.38325453881851        0.02938300864446        0.53147676791924
S           -4.22086609238372       -0.63328880511572       -1.06263503130510
C           -3.16355708836706        0.38666117292819        1.32155663278187
C           -2.40437803164426        1.52099498358960        0.67822705402995
C           -1.17792128660991        1.08302733709804        0.36986870247461
Se           0.38204016119157        1.77647340709213       -0.44621959303767
C            1.11326304365434        0.04578242447396       -0.16232045418130
C            0.27768757833648       -0.82240055220187        0.47414497113045
S            0.93189715749109       -2.44528863206349        0.78575684297639
C            2.33829077446935       -1.96915557560335       -0.13120140910763
C            3.18179660997985       -2.33185470374421       -1.10084672757904
C            3.44387174009185       -0.89692174491769       -1.53173079241320
C            4.55658138161559       -0.22257249338103       -0.76977362474060
C            5.79535953471988        0.20041935107023       -0.43771798023251
O            5.72189347078721        0.83156158484368        0.76518033410452
C            4.44054335157627        0.80106005506250        1.21558833312453
C            3.68997701504370        0.15616649238144        0.29572801657861
C            2.47249786851154       -0.47304144669968       -0.34614769039944
C           -1.01734561624246       -0.31539595237638        0.78705410271668
C           -2.16111762876692       -0.73361244001895        1.35649809294809
H           -6.34772186469836       -1.08664386124478       -2.14880772677181
H           -7.64869722051473       -0.21205024883840       -0.04620227511630
H           -6.01351053867393        0.56703802353366        1.82502091954216
H           -2.84068041139476        2.48458494004436        0.49666803068858
H            3.60334000133296       -3.25856706196259       -1.43292751056852
H            3.24886066299952       -0.62959128327667       -2.56273619965480
H            6.75977928241000        0.16390371051060       -0.90243522007002
H            4.24637355396026        1.27966478952391        2.15357483870621
H           -3.47994370580103        0.66120924501785        2.33390314225377
H           -2.38302011194006       -1.70464740635842        1.75621275393262
