14
 energy: -27.519572650652 gnorm: 0.000050302594 xtb: 6.7.0 (08769fc)
N            1.01069754352315       -0.03688086453156       -0.11521572382667
C            2.38160090663293       -0.08634894935220        0.00697310545902
C            3.11502573803018       -1.23966763895337        0.03059695393892
F            2.55974600564188       -2.47473227557778        0.04269624749136
N            4.47533206331236       -1.22106785731455        0.06517229463562
C            5.19511936146502       -0.02353587783426        0.07129457895120
N            6.46143768770276        0.08194203299003        0.09474243019912
C            4.33003656507601        1.13973644852924        0.05865201793231
N            3.04557164363481        1.10651706680297        0.03111366769912
H            0.50157891094918       -0.83837324713662        0.22261224445235
H            0.61763718869571        0.85796614294011        0.13040726070326
H            4.96714348781693       -2.10661930755658        0.08163523185201
H            6.96592188466357       -0.80076335035042        0.10510960056393
H            4.80564101285548        2.10888767734497        0.08059008994843
