14
 energy: -26.404745114591 gnorm: 0.000109262512 xtb: 6.7.0 (08769fc)
O            0.91606875957527       -0.12142553470132        1.17219854790188
C            2.08672045290621       -0.66486770186155        1.53588625296263
C            2.08223599588950       -1.64276558988415        2.50765006839075
C            3.22039145914973       -2.20902970232567        3.10442024632127
C            4.51797294064657       -1.79209988594624        3.03878608023473
C            5.10304381489064       -0.73456301094300        2.24436598167801
O            6.20125650571344       -0.24153044053210        2.48174240565455
C            4.38242843736327       -0.39437059741959        0.99780239965707
N            3.13084930693645       -0.31450898245979        0.76550620702646
H            1.05955051515297        0.47367507393596        0.42012762732689
H            1.11141871530596       -1.99929169373169        2.82099534351026
H            3.02043342891579       -3.04321568284117        3.76608801982148
H            5.24818258595236       -2.32007056683614        3.64088729328730
H            5.02832708160181       -0.13415568445353        0.16240352622676
