15
 energy: -27.345522790363 gnorm: 0.000055506970 xtb: 6.7.0 (08769fc)
N            1.18293984484952        0.38617160729274        0.53527805596864
C            2.32547983089357        0.03265957548165       -0.06716476847464
N            2.91083624093081       -1.13701683111235        0.20035561197255
N            2.91326458123961        0.84142948401142       -0.95410457710234
C            2.55099523281833        2.09208494600023       -1.42469128591213
C            3.51823278481194        2.50509040402131       -2.34946295710389
O            3.61574726091108        3.55372162929094       -3.02755602017502
C            4.44657267574986        1.36555785777604       -2.34530875392728
N            4.08403650926620        0.41675320056076       -1.53670816596574
H            0.74661305290764       -0.22585071219955        1.20149538762432
H            0.75259965914643        1.26900135341010        0.32528195875398
H            2.52297922387302       -1.79119155185653        0.85499596647269
H            3.76900312643894       -1.33043500914545       -0.29448283762966
H            1.66929834887513        2.59864169027153       -1.09361407991554
H            5.34453162728790        1.27232235619716       -2.92782353458592
