17
 energy: -28.306312223081 gnorm: 0.000073547854 xtb: 6.7.0 (08769fc)
N            1.11658964609595       -0.36705890546637        0.22553085262201
C            2.40976696021433       -0.13913258761132        0.07000244945801
N            3.02514600037796        0.88300316931600        0.65939672451944
C            3.12151977042477       -1.02814912260105       -0.82340143437828
N            2.53910098358910       -1.88457543179489       -1.62544262948233
O            1.25976159200923       -2.08684119059595       -1.57987635782492
C            4.60063284197753       -0.98081269383928       -0.96481914960751
C            5.51429471812633       -1.10041849665461        0.20290664132272
N            5.34277344148435        0.16823882244076       -0.47481150332290
H            0.52578208154974        0.29596294005625        0.70356003268028
H            0.77471794273586       -1.11433926305125       -0.44911439218052
H            2.50289106780258        1.55441468125499        1.19898322146180
H            4.01178517800339        1.02118036553432        0.44175972477402
H            4.92213160175095       -1.45468205412809       -1.88820848997068
H            6.44065733632139       -1.64828103156640        0.08599072912718
H            5.08914205824694       -1.14235836404415        1.19659317983564
H            6.12189677928956        0.44277916275093       -1.06396959903399
