16
 energy: -27.099522262562 gnorm: 0.000034969271 xtb: 6.7.0 (08769fc)
C            0.96759829513781        0.01642868830269       -0.05758544416998
C            2.46366390655593       -0.03098824646339       -0.09093720316015
C            3.19800217508262       -1.18718530073727       -0.21654879475526
O            2.63869523514822       -2.42577590142949       -0.32555145804257
N            4.54884539138255       -1.17707413468738       -0.24174057219323
C            5.17675488705137       -0.05498401681902       -0.14569624187683
C            4.52731975024040        1.23590055531278       -0.00855003765584
N            5.03924340675855        2.40698273150213        0.09447419663960
N            3.14934441441071        1.14009770871306        0.00888548704361
H            0.58045125184767       -0.56177126214737        0.78257234708898
H            0.54684397984213       -0.38866978917026       -0.97897573527115
H            0.62630013106594        1.04301326348699        0.04985842550032
H            1.67664352055973       -2.35527555268773       -0.29992824921392
H            6.25815958963948       -0.09615642185748       -0.17069585345931
H            6.05419547594286        2.40411096200774        0.07456998196770
H            2.65108858933407        2.01652671667409        0.10292915155801
