15
 energy: -27.353117219748 gnorm: 0.000064394043 xtb: 6.7.0 (08769fc)
C            1.28622840160772       -0.51553279724460       -0.31778679661747
O            2.44345016206078        0.04445107873287        0.28252673907745
C            3.01256301304823       -0.67298351299118        1.24638701489579
N            2.52289929026447       -1.81812768735714        1.60147498433453
N            3.16012521973890       -2.47813949084855        2.58537056682284
C            4.29157541845642       -2.02451659620340        3.23838952416254
N            4.92059708198191       -2.61658366214177        4.16971613168138
C            4.72529490394028       -0.72649175259877        2.73235106720038
N            4.12808695057333       -0.08823657482169        1.79728462414590
H            0.96786343719375        0.20250886871537       -1.06991376386907
H            0.50085354025956       -0.66447931839440        0.42664051850339
H            1.52025579597093       -1.47695303084431       -0.78045741303611
H            2.73940868858616       -3.36841089316162        2.82700580549905
H            4.52842362754355       -3.51500167172247        4.44197183590598
H            5.60478446877402       -0.28127295911834        3.17610916129341
