13
 energy: -24.323819735933 gnorm: 0.000019109704 xtb: 6.7.0 (08769fc)
N            1.13635705367937        0.11558212420735       -0.02168425198600
C            2.39932088245045        0.12574549238265       -0.01986603032818
N            3.20273508030617       -1.04034540039739       -0.01542204282515
N            4.52277996261883       -1.04907194964805       -0.01368874225740
C            5.13266131206450        0.08887811444006       -0.01609972651134
C            4.36984301009240        1.31676438511083       -0.02048034469693
N            3.07434688394881        1.31683861721967       -0.02222646507528
C            5.06665034186643        2.55014798502061       -0.02293275770872
C            5.70963405952791        3.56491517414902       -0.02484674945473
H            0.71714498820058       -0.80910751283918       -0.01969876682524
H            2.76607548958406       -1.95615330350298       -0.01341215204457
H            6.20980505227818        0.07609968043655       -0.01468519961678
H            6.25233588338223        4.46414659342086       -0.02659677066978
