17
 energy: -29.100664808679 gnorm: 0.000086714080 xtb: 6.7.0 (08769fc)
C            1.69412511904957        0.32130527909718        1.24535918781518
C            2.46317389508004        0.17022099090518       -0.06179882277461
C            3.26848609271054        1.43838046264220       -0.41647710437217
O            4.20694446617895        1.76931412952685        0.59324926048080
C            3.92478350097795        3.02098325462986        1.17798973717716
C            2.78077526712734        3.65410611545801        0.44056325054515
O            2.27638057513460        4.72876871043397        0.63049931340913
C            2.36390341137902        2.62470164830998       -0.61766752146243
O            1.48254887490248        2.75131658147933       -1.42589404959015
H            1.15772079082315       -0.59862456628152        1.46381628285127
H            0.97118695223202        1.13339907007588        1.18132953150867
H            2.37787565601607        0.52076283703107        2.06725281199522
H            1.77605250050799       -0.02268833802815       -0.88726799945728
H            3.16374566415494       -0.66178545883165        0.01785248191931
H            3.82288654393139        1.24602317389228       -1.34712198861542
H            4.81861503120008        3.65548650117163        1.12780776955250
H            3.66361565859456        2.89436960848764        2.23822785901768
