18
 energy: -28.125450580488 gnorm: 0.000045136928 xtb: 6.7.0 (08769fc)
C            1.11094598497420        0.22049661389756        0.06048870485432
N            2.53330900427275        0.03330021903133        0.09688198136179
N            3.34858359997288        1.08132719228305        0.10290970870235
C            4.58279783823839        0.60346481900454        0.12450424147391
C            4.56324111300791       -0.79884401303739        0.12689108531909
O            5.63023104544785       -1.64215575233567        0.14251315298880
C            3.21880811767974       -1.13880327821750        0.11055042521137
C            2.60117556368323       -2.50013656482611        0.09198642239387
N            3.54293814595705       -3.45376364678067        0.67542067148879
H            0.92673910286024        1.29197296456166        0.02422743534739
H            0.64138639003219       -0.19583838062075        0.95461820021041
H            0.68181461520139       -0.25390330042138       -0.82416292660901
H            5.42875149221514        1.26002644967885        0.13357350003883
H            2.41765633115888       -2.80950602434192       -0.94522571740669
H            1.62735326352791       -2.47542488573495        0.60887057385472
H            5.26149389903459       -2.54321595127585        0.19554738480401
H            3.21533293245853       -4.40400113536697        0.54250131395064
H            3.62800156027714       -3.29162532549789        1.67467384201541
