17
 energy: -26.992037715014 gnorm: 0.000013954416 xtb: 6.7.0 (08769fc)
C           -1.13652336340899        1.18360026874851       -0.81176985477105
C           -1.43995099923219        0.01039182021027        0.10251296775216
O           -1.37853508009246       -1.28973072508697       -0.42441595439171
C           -0.11410205755735       -1.39798780753951        0.17662944729636
C            1.12184743161382       -1.21537007300653       -0.68565252956973
C            1.41459156452661        0.03814005007605        0.11897442089115
O            1.36046930490050        1.28343760905336       -0.52760471490068
C            0.08872843261280        1.44655289340544        0.04501048672096
C           -0.01796268746222        0.06380398629295        0.95603984391876
H           -1.88150364825312        1.97559742390837       -0.83349686321713
H           -0.88778941175127        0.87825731722922       -1.82642423698566
H           -2.27195188265603        0.14297234712805        0.79460007801761
H           -0.06953101053816       -2.19648849773238        0.91771565224633
H            0.88597482212851       -1.00613416078727       -1.72739136069817
H            1.86652648720149       -2.00555202567330       -0.62417054685883
H            2.23783229325849       -0.02889048436450        0.83071590964992
H            0.03539980470957        2.31070005813822        0.70772725489972
