17
 energy: -27.168206068019 gnorm: 0.000039013579 xtb: 6.7.0 (08769fc)
C            1.05808354803202        0.12900658606931       -0.12412561436447
C            2.57975039973230        0.06370248407483        0.05471669356693
C            3.19303823374562       -1.14980438674576       -0.57638932391707
C            4.10660244096787       -0.87917549285014       -1.51875478367720
C            4.89293360387583       -1.83537107376626       -2.34378140887693
C            4.26667812081609        0.57530334901399       -1.65972291465725
O            5.01247231241713        1.18750952696078       -2.38963117488619
C            3.27824925970987        1.20876126565060       -0.66021079680520
O            3.09808882680973        2.38587588470115       -0.50005415866073
H            0.58326090001063       -0.69255028402833        0.40621061572145
H            0.79970319634304        0.06357913041447       -1.17902347085536
H            0.68181872150909        1.07008678550293        0.26922902715432
H            2.80713075507195        0.11309147250518        1.12630871647371
H            2.88397419844709       -2.13984728760878       -0.28165618923376
H            4.64004387734126       -2.86279081003174       -2.09700614152592
H            5.95765519575948       -1.67314361260290       -2.17985754104905
H            4.69736640941103       -1.65643353725933       -3.40047153440726
