13
 energy: -24.761063021465 gnorm: 0.000060288514 xtb: 6.7.0 (08769fc)
O            1.05571773310389       -0.13099417403110        0.06381085971697
C            2.26530208945567       -0.08690560133050        0.05570600706005
C            3.22566218966990       -1.25583268050192        0.04941762834663
C            4.49630623204276       -0.83306871410367        0.04054122676293
C            4.48045778843315        0.63476536066870        0.04004260722403
C            3.16310111769506        1.06779262210939        0.04902038767037
N            3.22094529845497        2.42947050671770        0.04798653086870
C            4.53972982681822        2.74071157339997        0.03877070850332
N            5.32655810776636        1.68145219978160        0.03377099770827
H            2.87231474543635       -2.27029747508316        0.05214786384928
H            5.38673653655619       -1.43476990002278        0.03465155867513
H            2.44554257972075        3.07413785372690        0.05305572690142
H            4.90310575484674        3.74893842866887        0.03586789671290
