15
 energy: -29.942193410451 gnorm: 0.000089528314 xtb: 6.7.0 (08769fc)
C            0.88233065323734        0.12642140396048        0.01270090136305
O            2.28829540312477       -0.00001757236724       -0.02305169612870
C            2.84403722347813       -0.26915428238202        1.22751400600575
C            4.34165850182605       -0.43623002863749        1.12723173976473
O            5.01598557376250       -0.30654710641008        0.14664144358740
C            4.92673907653581       -0.83935316919650        2.49915856372152
O            4.85901828262913       -0.15033613060921        3.47927410370146
C            5.58913658826855       -2.19775025911616        2.40427129757686
O            5.02404782393448       -3.25115606167450        2.40802882909227
H            0.57277131736503        0.33022067878923       -1.00955707008676
H            0.57568044711064        0.95394590796698        0.66249492651993
H            0.41058979389849       -0.79899165723328        0.36268458902484
H            2.42389982621724       -1.19100304533696        1.67103243632399
H            2.65991852846675        0.55054977891553        1.94686662936971
H            6.68446096014524       -2.10386845666860        2.25959930016382
