14
 energy: -26.048243819689 gnorm: 0.000032330882 xtb: 6.7.0 (08769fc)
N            0.97481815313442       -0.19674735273339        0.12572944910176
C            2.23062272131634       -0.04467452013776       -0.01710608156060
C            2.93463963524542        1.23758423123343       -0.14360167648000
C            4.28101519376201        1.25461820431618       -0.28973135594180
N            4.97193741116870        0.06400345054989       -0.31806795099905
C            4.27632440280989       -1.09938953668093       -0.19802997276770
N            3.01690952265040       -1.18976787289340       -0.05808854106574
C            5.07938270726834        2.48038317099064       -0.42349592020973
O            6.28045224933785        2.48238062971350       -0.55289337851878
H            0.45268565791654        0.67583649137294        0.14842129679673
H            2.36618042561573        2.15540544606313       -0.11798796050817
H            5.97774873866316        0.10350753393289       -0.42800840755493
H            4.85781327180470       -2.01173489578282       -0.22578752586923
H            4.49052990930651        3.41254502005572       -0.39650197442276
