16
 energy: -27.036595861547 gnorm: 0.000040564566 xtb: 6.7.0 (08769fc)
C            1.02479079974650       -0.00596246005797       -0.46670653353840
C            2.50437150078948       -0.01493639063886       -0.12052714968342
N            3.15705885951282       -1.14807556084322       -0.74176485922188
C            4.47120941551568       -1.42932752244300       -0.63414665703338
N            5.39744132153296       -0.81567160026037       -0.00645809576995
C            4.88954372993366       -2.66278606504015       -1.37701996422174
O            4.13294992206965       -3.35638413771134       -2.01736586218313
C            6.30723993185098       -2.95062644913779       -1.25364357741958
N            7.41690827457534       -3.22271015934804       -1.18919526515740
H            0.54146591424546        0.84768141705747        0.00072810063167
H            0.54392982789326       -0.91381815794535       -0.10850431595920
H            0.88575050049553        0.06525179256329       -1.54342368560842
H            2.63611030089056       -0.07323486858469        0.96818050627324
H            2.97859575200679        0.91162086189311       -0.47053107943616
H            2.59229644953654       -1.77664168412764       -1.29632137292219
H            5.10161749940480        0.01771098462455        0.49295981124992
