15
 energy: -25.411726572216 gnorm: 0.000094080525 xtb: 6.7.0 (08769fc)
N            1.03888815381885       -0.00722607457220        0.06211175686486
C            2.37060259041765        0.04535882037225        0.06805173732179
N            3.15882430678708       -1.00916216818355        0.07745577875082
C            4.49828985841758       -0.60902207356450        0.08127324832323
C            4.56674582773109        0.79433699815880        0.07385152668090
C            3.16808302628191        1.32669493421285        0.06467855642589
C            5.93304430982149        1.01538876626364        0.07870312246373
N            6.57270291034195       -0.17067293033188        0.08835986443007
N            5.69882567206626       -1.17882155062522        0.08972457814058
H            0.55097727462167       -0.88769566426843        0.06484954370066
H            0.50115336020652        0.84188466186131        0.05532753137715
H            2.85564702027053       -1.97273563441947        0.08135874395366
H            2.93995578954904        1.92161190428305       -0.82342938589444
H            2.93202603281246        1.93120527840348        0.94419615613108
H            6.49759386685590        1.92969473240987        0.07618724133001
