13
 energy: -28.622159266927 gnorm: 0.000079104853 xtb: 6.7.0 (08769fc)
O            1.03094010392587        0.26108693436421        0.22337824384525
C            2.35321518003421        0.07135299556850        0.14203845613977
C            2.96600298185198       -1.14995599080972        0.04205000488495
O            2.21468034967912       -2.28962110409213        0.01901672481020
N            4.31002932362208       -1.25439690325822       -0.03504618422789
C            5.01291354412540       -0.17077213346554       -0.01277243796671
C            4.43586441190159        1.15822597184546        0.09039767928119
N            5.02273338970372        2.28552336606155        0.12004318913123
O            3.05858255734058        1.20446075118379        0.16654616768352
H            0.58136970199597       -0.59807913599707        0.19961487526179
H            2.82402186208614       -3.03724479988129       -0.05355521578725
H            6.08661040658573       -0.27278905354860       -0.07515704644453
H            6.03299618714760        2.21654910202906        0.06252554338852
