14
 energy: -27.513138563724 gnorm: 0.000082925313 xtb: 6.7.0 (08769fc)
C            1.14107713726601       -0.09646749069112        0.04583228379310
N            2.57871376050852       -0.06420189171138        0.04882094131814
N            3.21103739797327       -1.20560325547075        0.04928053949437
C            4.50805848608983       -1.19184130952186        0.05199687401066
F            5.12980955053751       -2.38040006137895        0.05240541964891
C            5.24384829413520        0.02407582602763        0.05438046858665
N            4.62295276082376        1.15203264830460        0.05391860174226
C            3.23687485782634        1.17482173822070        0.05111917062568
N            2.51713795503884        2.21749912063936        0.05045664187865
H            0.82484178346305       -1.13617793344604        0.04383200650509
H            0.77134485120067        0.42878835677325       -0.83520792142804
H            0.76768597423787        0.42645675396315        0.92672273573703
H            6.32603081395333        0.03058938254794        0.05659300596873
H            3.05854637694579        3.07459811574347        0.05218923211877
