12
 energy: -25.336483454192 gnorm: 0.000020560688 xtb: 6.7.0 (08769fc)
O            0.92808307229262       -0.07676137476918        0.06922715413236
C            2.13092158816227       -0.09147674167511        0.05974247087360
C            3.04712207571224       -1.27872098295447        0.05295702994062
C            4.33355894762260       -0.90187076216765        0.04244200830903
C            4.38598438080047        0.56362704584059        0.04148979069601
C            3.09101716271879        1.05000404393202        0.05166314318172
O            3.09955020422411        2.37663959703374        0.05121315377927
N            4.38923897710129        2.78530837895055        0.04085303360608
C            5.17113150825722        1.72547439367306        0.03493371644805
H            2.66209204999034       -2.28172781588034        0.05645052019282
H            5.19904724176947       -1.53936860005763        0.03574296269440
H            6.23444279134858        1.85158281807442        0.02644501614604
