15
 energy: -23.864806263876 gnorm: 0.000038294656 xtb: 6.7.0 (08769fc)
N            0.94398770245410       -1.41496257748089       -0.03316083265720
C            2.08829687199071       -0.70441776106605       -0.06133245996210
C            2.04471249459289        0.67590619521849       -0.05866635667439
N            0.91551515416158        1.38706454845114       -0.02928193430245
C           -0.21060902130821        0.71394529204719       -0.00164415843032
C           -1.54880136115226        1.13383283441275        0.03301366424356
C           -2.33971907793863        0.00184903245297        0.05168884292987
C           -1.55176745885240       -1.17489582474396        0.03036453334464
C           -0.24432547429792       -0.77458641488882       -0.00247618193959
H            0.97026768775518       -2.42898497371961       -0.03489478658988
H            3.01618283071299       -1.25194653768633       -0.08535537444240
H            2.96143156234795        1.24677589447598       -0.08114551535539
H           -1.88383655819799        2.15267698651672        0.04288061693710
H           -3.41616307638041        0.00110996327540        0.07900035535946
H           -1.92630227588758       -2.18186665726497        0.03872958753910
