15
 energy: -27.726701580047 gnorm: 0.000043638074 xtb: 6.7.0 (08769fc)
N            0.96914446111430       -0.07437749002999        0.29052042079997
C            2.25914324069168       -0.12118045715648        0.04933278601409
N            3.06074034212868       -1.15332309396336        0.15351856347400
C            4.42523405838583       -0.82437085034343       -0.19792752956444
C            4.34678429505926        0.63511972117968       -0.55223420153652
C            5.45744704504185        1.40392018930024       -0.96482756342642
O            6.61235905303268        1.00311969946991       -1.09020438067537
C            3.02969004919825        1.09333230458090       -0.40952830274451
O            2.47648490205419        2.18652037469799       -0.57778702108958
H            0.42344902803595       -0.86438744555644        0.59766590350420
H            0.52342343035621        0.82291898546836        0.15087903628445
H            2.78987997053256       -2.08273815145861        0.44144943221449
H            4.76996644040600       -1.43318043089280       -1.03999808155766
H            5.10079540950391       -1.00653932788895        0.64411735312516
H            5.20504827445864        2.46033597259299       -1.18238641482186
