14
 energy: -26.036255099917 gnorm: 0.000086105765 xtb: 6.7.0 (08769fc)
N            1.00667615292111        0.70752441705677        0.64497013750744
C            2.18666993830179        1.20517700265704        1.05199905002825
C            2.22011755475928        2.28706276747858        1.93989646656482
N            3.24846571861259        2.93186822873799        2.47113082421752
C            4.51361028945794        2.71739297283450        2.29750774533050
C            5.22893729607463        1.73961767955104        1.49340405361034
O            6.46332465959035        1.71512146233530        1.47521770966663
C            4.48768795101178        0.75437631300801        0.67964776371894
N            3.24171576402244        0.53778157100236        0.50173917213030
H            1.01280453380388       -0.06978707768996        0.00626981129566
H            0.13534634152982        1.09252025872727        0.96322864704928
H            1.26127520108980        2.68162528133898        2.26252393333723
H            5.16553280126011        3.38907304828797        2.85102162857250
H            5.14725579756449        0.08578607467414        0.12813305697059
