11
 energy: -27.248482919398 gnorm: 0.000039028687 xtb: 6.7.0 (08769fc)
O            0.99458533597988       -0.13168744206902        0.01089342104830
C            2.19386665542442       -0.03049817091603        0.00647735741616
N            3.10149644689976       -1.11103069718223        0.00573124008248
C            4.35019740198093       -0.60153010373393        0.00021626424910
C            4.27059233192283        0.79301511498476       -0.00262269321303
N            2.93955100187621        1.12958274876175        0.00127259591516
N            5.52631182379312        1.25179818169736       -0.00800164571725
N            6.32613528456428        0.29072268570919       -0.00861675781773
O            5.61439989537369       -0.95237256129422       -0.00337786455367
H            2.81635063601081       -2.07776678130434        0.00884652852542
H            2.53865318617407        2.05295702534670        0.00058155406505
