12
 energy: -26.927761707213 gnorm: 0.000101106837 xtb: 6.7.0 (08769fc)
N            1.19031589597545        0.07148750706011        0.07405934429194
C            2.54298727344229        0.04411853973109        0.07266763659070
C            3.39118148128146       -1.03375467613500        0.07401492404651
O            4.74540277081642       -0.66650677908779        0.07206496975140
C            4.71997756181707        0.64174867449983        0.06948410689587
C            3.42529840998787        1.17548596907944        0.06961026022757
N            3.59017227017449        2.51405750044998        0.06682729880254
N            4.78966469813200        2.81018041681521        0.06483484016375
O            5.60853568244485        1.61208811681675        0.06674705309801
H            0.66924668574159       -0.78375867777665        0.07528768903703
H            0.71287587130598        0.95202993896221        0.07179922536862
H            3.20027139888053       -2.08574653041519        0.07632265172604
