14
 energy: -25.673782527499 gnorm: 0.000061705484 xtb: 6.7.0 (08769fc)
N            2.65091809186848       -3.00337313413553       -0.12745843162366
C            3.77350270411232       -2.46796831537120       -0.37418437805952
N            4.85683273003146       -3.29424564151326       -0.60541843597660
C            6.02559320738710       -3.00900233382953       -1.32202221355859
N            7.10360920268166       -3.66164465213149       -1.21933497832860
N            5.96384910176507       -2.04363940446846       -2.30225929680339
C            5.38806624297349       -0.92331408405543       -2.23672582356242
C            4.68905130114520       -0.39832123050012       -1.05343720077084
N            3.99677023106417       -1.10135490038568       -0.26437855037502
H            1.92415956945877       -2.33986820130116        0.11771221991565
H            4.71281373373683       -4.25553466420789       -0.31852080065302
H            7.09589903843150       -4.38899294839861       -0.51164216554873
H            5.42435112256272       -0.29875400979572       -3.12482066742938
H            4.74258372278121        0.66823352009407       -0.85421927722587
