17
 energy: -28.362041126608 gnorm: 0.000128043464 xtb: 6.7.0 (08769fc)
C            1.13994851135799       -0.05610978552718        0.05575100144227
N            2.56087196960638       -0.19912505387541       -0.14036563838352
C            3.12881791460116       -0.92255959762048       -1.12749154793477
N            2.53811302541112       -1.59301106575039       -2.04079574237031
C            4.63963159200345       -0.87642564739358       -1.06537476105493
O            5.17228597891285       -0.22895181429944       -0.18267321869220
C            5.49915326081191       -1.61369302323846       -2.07254822403582
N            4.87453439378841       -2.31380156168391       -3.02641475496860
N            6.77713983592733       -1.55959171748316       -2.00044848506253
H            0.96340828551636        0.57815254650648        0.91946822243625
H            0.67302719585196       -1.03007553900990        0.23221115068371
H            0.67188143819372        0.40296229277162       -0.82054430507790
H            3.19675576723251        0.26551419162068        0.49276231717980
H            1.52378967731661       -1.56431026888801       -2.00039139511618
H            3.85856017043013       -2.31638500396412       -3.03024459634989
H            5.43546627124171       -2.80566554141664       -3.69907263052653
H            7.10406471179640       -0.98966341074808       -1.22356739216885
