13
 energy: -26.671675462130 gnorm: 0.000059749841 xtb: 6.7.0 (08769fc)
N            1.02962519442517       -0.20280704860225       -0.13834970943243
C            2.27554454830375       -0.20588698459730       -0.00466642305859
O            2.99167509660371        1.02202299507479        0.08532958403151
C            4.30844332119399        1.00179451387536        0.22495077308175
C            5.01938021835262       -0.14591484454445        0.28789714674395
C            4.25609109599602       -1.35556121987367        0.19402673368205
C            4.93154798739997       -2.68276971981778        0.25137815067997
O            6.11716451712769       -2.83053023131106        0.37518148005912
N            2.97047485368909       -1.37024884167873        0.05698066863662
H            0.60474296452800        0.71691838416647       -0.17400714401851
H            4.74091396066510        1.99367030447253        0.28190641061029
H            6.08755320259366       -0.17610686807987        0.40095657315807
H            4.22426303912121       -3.52382043908402        0.16748575582621
