16
 energy: -26.728957808276 gnorm: 0.000078055903 xtb: 6.7.0 (08769fc)
C            1.20651637165457       -0.00910814747270       -0.01531998852702
N            2.64418960228445        0.04860109105446       -0.01202823485372
N            3.28710143162142       -1.11496407698212       -0.01054978219168
C            4.59819627072589       -1.10333094304188       -0.00753888822888
N            5.26800526385009       -2.28219202897814       -0.00634507397772
C            5.28649572070583        0.15718643652524       -0.00594043910129
N            4.65997663757433        1.27901629883081       -0.00734085353828
C            3.27369206127565        1.27978754741821       -0.01049094934723
N            2.54650657244403        2.32931170190573       -0.01203290409527
H            0.91125544029059       -1.05512732152886       -0.01685529142973
H            0.82404508304008        0.50636498639753       -0.89724746304975
H            0.81999357129309        0.50485351605592        0.86573336715526
H            4.74597135130095       -3.13834062660902       -0.00664967684254
H            6.26918339583017       -2.30004595057236       -0.00272655368539
H            6.37035700846727        0.19454402421276       -0.00348133943624
H            3.10189421764158        3.17891349278442       -0.01075592885051
