16
 energy: -26.965908098081 gnorm: 0.000053936318 xtb: 6.7.0 (08769fc)
N            1.84227596786954        0.01686037556046       -0.73710182563282
C            3.05331770663425        0.13975968377167       -0.17673625308271
N            3.93123699517536       -0.85719715941413       -0.30154809255104
C            3.44201312781468        1.31639702819822        0.50748980439855
C            2.50990486412692        2.51074674402380        0.63569738674362
C            1.23919531364160        2.17478971947778        1.24060785850701
C            0.19203613581815        1.85078771096981        1.72596573294819
N            4.67481336443462        1.28677393252605        0.99320939576778
O            5.14578706845997        2.28777080541757        1.62553644996095
H            1.56338129456510       -0.86435352188101       -1.13573912223132
H            1.12290200142960        0.68280393669829       -0.50466239897969
H            3.70964875913982       -1.71117775753295       -0.78249603703787
H            4.84180913405902       -0.70257927890581        0.10305137636690
H            2.34408881452035        2.97366581745218       -0.34445788632975
H            3.03864931116212        3.23123721197072        1.27135142099547
H           -0.72400985885103        1.60041475166746        2.17200219015660
