13
 energy: -25.051173441808 gnorm: 0.000119325577 xtb: 6.7.0 (08769fc)
O            1.34936300896738        0.07420484960316        0.78618153530285
C            2.44316650255939        0.08550431088100        0.29078834725369
C            3.25278376115618        1.30035261844782       -0.11301377764224
C            4.51936423166077        0.71165475861188       -0.66993360839882
C            4.52692307218149       -0.63855265552425       -0.63187978987959
C            3.29656602062966       -1.15391689671556       -0.05782115692644
O            2.96314059971502       -2.30367949668593        0.12888270857597
C            5.54286314715159        1.53262216533057       -1.16091144161235
C            6.40985841886708        2.25544209618666       -1.57882123373495
H            3.44206897137201        1.94809501557012        0.74729389115865
H            2.71603769389663        1.89989349050318       -0.85330767854550
H            5.32393390156654       -1.27474066496314       -0.97410573552720
H            7.17231067027617        2.87784040875449       -1.94568206002409
