13
 energy: -26.292822251858 gnorm: 0.000152765154 xtb: 6.7.0 (08769fc)
N            1.02151680584620        0.02729375814489        0.04307589221038
C            2.28151300117010       -0.01443670400523        0.04469923603235
N            3.05018610277224       -1.20568402473033        0.04827596016538
N            4.36471442826057       -1.26083300133473        0.05000079304557
C            5.01651492225089       -0.14241092076670        0.04834676486500
C            4.29767601893916        1.10156582418170        0.04469113287214
C            5.01822388351423        2.40347992231650        0.04276706165905
O            6.21481219796860        2.51423978166992        0.04401134580371
N            3.00533808847059        1.15303632469280        0.04296482857738
H            0.55687104669661       -0.87458345404672        0.04452166118639
H            2.58272567350387       -2.10701833538942        0.04967960233135
H            6.09244513235893       -0.18273736381365        0.04976774614870
H            4.33366269824801        3.26815819308097        0.03969797510262
