13
 energy: -25.791227180111 gnorm: 0.000078851788 xtb: 6.7.0 (08769fc)
N            1.20898158462358       -0.01930985379391        0.00334793553553
C            2.52966143669361        0.00653395690372        0.02488819850805
N            3.25170631022847       -0.83381406752607       -0.70180956414187
C            3.21212440549649        0.96862549088112        0.85608008288565
C            2.48807300764240        1.90689536143827        1.66562097340595
O            1.26745101849399        2.00424344632938        1.74919329126055
N            4.55884941876206        0.89109497235626        0.79007207528766
O            5.27537573488533        1.67222460472058        1.46510245133585
H            0.70224086521437       -0.67768726388602       -0.56585542450352
H            0.72303260485738        0.65943983013419        0.59014789542025
H            2.82963133597554       -1.52558345568442       -1.29886764764913
H            4.25527959743196       -0.75081060936892       -0.63082704108790
H            3.14281267969482        2.57876758749581        2.24518677374292
