19
 energy: -29.687904266854 gnorm: 0.000102507678 xtb: 6.7.0 (08769fc)
C            1.65950501443136       -0.70674304579650       -0.16265289918310
N            2.31533848205973        0.57922446448891        0.03454023648718
C            2.93667163341980        1.09333283187178       -1.17904311415207
C            4.34140149999129        0.54127338343795       -1.24094402152630
O            4.81680555937695        0.09700360757438       -0.09647526945588
C            5.10127660340921        0.51723284615894       -2.38688761983367
C            6.51481052563963        0.00515387193361       -2.37797174833003
N            4.46163286026359        0.96666123359577       -3.49730210634826
O            5.08352871609999        1.00220766569817       -4.58365204382962
H            1.25922668002601       -1.04614166356668        0.79083847296255
H            2.39312268038917       -1.43246591989318       -0.51405975345618
H            0.84448243970472       -0.66208677825286       -0.89520144815185
H            4.07276099127764        0.17306682641283        0.55690834017870
H            1.64797264236195        1.24584747966163        0.40597725036025
H            3.01253778082425        2.18328162892387       -1.12092941472701
H            2.40015666360169        0.84991807277203       -2.10328661645828
H            6.56831603443482       -0.95470942920617       -1.86901057009959
H            7.16934888060251        0.70667514418956       -1.86260507531618
H            6.85289431208602       -0.10194222000438       -3.40735259912082
