14
 energy: -26.371335783322 gnorm: 0.000025777088 xtb: 6.7.0 (08769fc)
O            1.06575380246616        0.04495634944376       -0.05333093175825
C            2.27155546620030        0.09466084996236       -0.00174396385363
C            3.14374699197438        1.26619230488834        0.06406386840250
C            4.43424001205100        0.90268142767471        0.05304324185049
C            4.60453498771918       -0.55897587483764       -0.01844320607671
C            5.72956597839879       -1.21091871022826       -0.76935625653342
N            5.68262318142719       -1.26407440958423        0.65664549420167
C            3.21866113099921       -1.13233541714937       -0.02444356721724
O            2.88972233017935       -2.28564135062020       -0.07229396241226
H            2.76025248280025        2.26943270666566        0.12094862608583
H            5.27897288440182        1.57129178601609        0.11058824248488
H            6.44255920820051       -0.57175433644615       -1.27859684594647
H            5.50300195852764       -2.14493969465784       -1.26641435523638
H            6.33350958465420       -0.64495563112723        1.13275361600898
