14
 energy: -27.949456342410 gnorm: 0.000095357763 xtb: 6.7.0 (08769fc)
N            1.01902916922302       -0.00737808491274        0.03492929389864
C            2.34105991559211       -0.10230076688268        0.04890004282025
N            3.11406042168497        0.48183916976339       -0.82655603113634
C            4.48877297367233        0.43542602158056       -0.88403570626405
N            5.27406803308840       -0.21969026736609       -0.04770050741911
O            6.53479906003009        0.00521106108716       -0.46927998610100
C            6.53466574727095        0.79909611309074       -1.56720280153211
C            5.22400665206282        1.14087028621785       -1.92428243264633
O            4.71241943027265        1.83408302377080       -2.83749964612809
H            0.46486629884901       -0.47585954476530        0.73089838005857
H            0.54876444770587        0.53564055120202       -0.67344456810259
H            2.82916978217406       -0.68877290762135        0.81576438411872
H            2.73779381422407        1.05493235714566       -1.58501800620652
H            7.49079425414966        1.03957298768998       -1.98319241536005
