12
 energy: -24.501960973805 gnorm: 0.000078698886 xtb: 6.7.0 (08769fc)
N            1.25744837731917       -0.06943035651185        0.17595243251942
C            2.57467146973732        0.03959205206775        0.07008210877464
N            3.26241429292573       -0.78926277175585       -0.70329953985357
C            3.24227175092424        1.05717430885715        0.75946836697936
C            3.81672807481871        1.97546073260197        1.31662637564976
C            4.56324890158834        2.69346465792736        2.43641826659403
O            4.64691972502272        1.83449346410139        3.32753808299866
O            4.92669087015356        3.84833853359501        2.32652090281020
H            0.75157329292477       -0.79017637045446       -0.31511083529142
H            0.74803565228160        0.55953453860676        0.77447090061657
H            2.80464496917134       -1.52725356793531       -1.21550333362332
H            4.26321262313231       -0.70220522109986       -0.76760372817426
