16
 energy: -27.431718234382 gnorm: 0.000091852016 xtb: 6.7.0 (08769fc)
C            1.19456277552838        0.46635505830063        0.29213544062873
C            2.49565925603752       -0.10652547127657       -0.25776824985356
N            2.99207069741213        0.59197492576719       -1.43818455931448
C            2.19655761139617        0.42228262748503       -2.61546727747504
C            3.44473767681312       -0.38017571125223       -2.42009824164750
C            3.21426059209592       -1.75229433221424       -1.92622447363685
O            3.56660259925591       -2.79874086179314       -2.41154809904053
C            2.44102568551453       -1.58528410756807       -0.59987673192754
O            1.95230488046939       -2.47256810742736        0.04727488096255
H            1.34220150673618        1.50448105955486        0.57644346391935
H            0.89170203635900       -0.10815942611066        1.16386786651249
H            0.40046978496106        0.41556264802306       -0.44887392061557
H            3.27799897910742       -0.00708585546195        0.51069506941465
H            2.23569526364409        1.23422602163913       -3.32704209329921
H            1.24228758683273       -0.09056113808562       -2.55460218359473
H            4.32325306783646       -0.16056732958005       -3.00966089103276
