20
 energy: -29.470046031886 gnorm: 0.000189809711 xtb: 6.7.0 (08769fc)
C            1.06609556057480       -0.07546873244629       -0.17412247219467
C            2.48755435415867        0.11645564234624        0.34828750293403
N            2.92123277304407        1.49817609003203        0.21450864835576
C            2.31125390739019        2.40423029621740        1.16542264008536
C            4.33842831519063        1.66266224326733        0.05968322495561
C            5.20548673379469        1.01476085620901        1.13379799137796
O            4.81007659814183        0.65391310756771        2.22014157934645
C            6.63210108034772        0.81001311956558        0.68971280554020
O            6.97133796590575        0.56750902085202       -0.44151465164204
H            0.84274225918866       -1.13760828183758       -0.23473981812348
H            0.97543143989752        0.36007898628699       -1.16580195807522
H            0.33332743309967        0.38757953575723        0.48073916709142
H            3.16522518239148       -0.50053199102824       -0.24846267252086
H            2.55178655936414       -0.22736444154905        1.39239196037710
H            1.22994024338303        2.35145344111985        1.06210242013408
H            2.62737058761817        3.42221167371403        0.94080379942519
H            2.57709783350646        2.16932056874301        2.20335188285515
H            4.57815648250734        2.72991429153417        0.00863421604582
H            4.65791538261368        1.21398023853485       -0.89004488434046
H            7.36713930788134        0.96633433511368        1.50116861837245
