13
 energy: -28.576341085732 gnorm: 0.000051026744 xtb: 6.7.0 (08769fc)
N            1.03069604515898        0.10984914141443       -0.13439286266259
C            2.27647505101305        0.02196384022858       -0.00277199717565
N            3.08224175307844        0.64462647976235       -0.93390049996860
C            4.43639731373707        0.63502332689938       -0.91842325069016
O            5.12928887741807        0.08249592036166       -0.09025215711199
C            5.03165973377104        1.42303924309018       -2.09898546460652
O            4.33773715506097        1.96969383426061       -2.91734357609634
C            6.56157161321339        1.45048638895176       -2.14078158592734
O            7.17683388006708        2.02165953563261       -2.99324244374180
H            0.48060688774171       -0.36377551711775        0.57379366490556
H            2.84663281748710       -0.49746987429344        0.77381897988556
H            2.60472796237355        1.14351551819071       -1.68120215355524
H            7.03585090987955        0.89632216261892       -1.31459665325489
