15
 energy: -25.263474267731 gnorm: 0.000110892582 xtb: 6.7.0 (08769fc)
C            1.05678476279793        0.11226236922939       -0.10688933526278
N            2.48249918128269       -0.07818385880938       -0.13297327998766
C            3.26990211086525        0.56434781780485       -1.12326487319120
C            3.12208414632834       -0.93171939643508       -1.12874196686934
C            2.33252187191429       -1.57470102976371       -2.18721751624675
O            1.40961506468282       -1.05801133912100       -2.79393219286381
C            2.72172926297759       -3.01062149563004       -2.49807624918877
O            3.58716762084574       -3.62466825233362       -1.93550320606979
H            0.86180565630136        1.04816955486258        0.41618929957359
H            0.60971035254033       -0.70830857161081        0.45441084491751
H            0.59616564897705        0.15976127183863       -1.10116109509421
H            4.22050830385885        0.96364231296527       -0.79751660442855
H            2.77271239769713        1.12232927669654       -1.91154073949498
H            3.93379533550106       -1.53542129919067       -0.73765900212360
H            2.13270828342949       -3.43746736050287       -3.33005408366962
