16
 energy: -29.364387810735 gnorm: 0.000027346907 xtb: 6.7.0 (08769fc)
C            0.99763065075572        0.16935147946290       -0.18575245000242
N            2.43317518087360        0.04649491859086       -0.10793413651253
C            3.02380123285664       -0.05935215075448        1.20293548710799
C            2.75608998581532       -1.38211129669830        1.88105521247594
O            2.17553941376122       -2.31493965845061        1.38764108021097
C            3.28960958023467       -1.45046490360098        3.30991636029168
O            3.41029326026910       -0.49816710594040        4.02734873852978
C            3.22580545305034       -0.06782754050707       -1.18444346342816
O            4.43090136059410       -0.20963602953743       -1.14579913070378
H            0.51431185397733       -0.72457750246112        0.21435518954529
H            0.69943923962851        0.29532167949228       -1.22399669774920
H            0.66941694228503        1.03904694346470        0.38730115467554
H            2.67697615385982        0.74386992073000        1.86427148523464
H            4.11101182098627        0.04530863317344        1.08185361740053
H            3.53922433155407       -2.47762877189688        3.63037547925723
H            2.67107353949792        0.00130138493321       -2.13450792633318
