15
 energy: -25.369221423416 gnorm: 0.000172455892 xtb: 6.7.0 (08769fc)
C            1.02808162162130       -0.07606184896431        0.23899812010604
C            2.47115681046255        0.23581692878479        0.01689016955790
N            2.97871657464217        0.02699535053138       -1.20681575848788
N            3.19402542822201        0.69908381748905        1.00890481768732
C            4.55157494381443        1.06045346285917        1.04754426036432
C            5.40196144790745        0.97636999095301       -0.03425687023001
N            6.13541325730256        0.91379861451117       -0.93197281034689
C            5.05459452260793        1.52630283327491        2.24985489295342
N            5.46326893298022        1.91400253462933        3.26094762463164
H            0.83485750303583       -1.12635398693245        0.02055948942237
H            0.40909345826879        0.52358716563828       -0.42851221568565
H            0.72982930372245        0.12602366161721        1.26407847106803
H            2.38940821811270       -0.33019111013811       -1.93671351788760
H            3.94743955871898        0.22142669506206       -1.40935182643739
H            2.73206841858086        0.82867589068432        1.90152515328442
