16
 energy: -26.731247793045 gnorm: 0.000057218582 xtb: 6.7.0 (08769fc)
C            3.00916174671544       -1.10712962852444        0.54477819463054
N            2.43859069182260        0.07114890759418       -0.07086811349775
C            3.14676692680180        0.98612684950047       -0.70994377835191
N            4.44097972310356        0.94339475663759       -0.86674552454201
C            5.17738374034957        1.91049888838947       -1.53984661799325
N            4.64348703660485        3.00549963648501       -2.11020292087951
C            5.75178301896601        3.57585685692328       -2.60035167074778
N            6.86544399184112        2.89459035538023       -2.35420146938738
N            6.49705154390314        1.81010629871841       -1.66442340154636
H            2.21316118539050       -1.69012279012742        0.99814450248021
H            3.72558648011809       -0.82912270704750        1.32092627815611
H            3.51585612451671       -1.72523609995755       -0.19961110538408
H            1.44121727111635        0.20233545625685       -0.00801737159181
H            2.64468558909681        1.84172890254258       -1.14373174170373
H            5.00911176274948        0.18694782071944       -0.50011517009097
H            5.74511316690399        4.50200649650941       -3.14456008955033
