13
 energy: -23.952542737363 gnorm: 0.000060593179 xtb: 6.7.0 (08769fc)
N            1.08213007341868       -0.11161779713787        0.27229823075190
C            2.43414064634942       -0.02389162975729        0.06402098878648
C            3.11581474803091        1.16859674585699       -0.00982486024991
N            4.46922707990395        1.14604933583023       -0.13595317617797
C            5.21587965553779       -0.01327467669140       -0.19524988876166
O            6.43821602448771        0.02941650741831       -0.30862929248104
C            4.39233205981862       -1.20374471193568       -0.11771956296113
N            3.10589320624496       -1.20350269960803       -0.00080250420330
H            0.51667165523573        0.67289946533301       -0.00539510276406
H            0.69112102873153       -1.02239963575420        0.09328549391255
H            2.63151024351441        2.13096014213715        0.02956070393506
H            4.98277671616882        2.01840998827401       -0.19031073620166
H            4.88707686255747       -2.16450103396521       -0.16729029358526
