13
 energy: -27.016401203079 gnorm: 0.000078043309 xtb: 6.7.0 (08769fc)
O            1.24291250640533        0.29027580944348        0.28596399260113
C            2.33366512096231       -0.04891098546025       -0.09471306916880
C            3.18085397566020        0.72839947072820       -1.00934733582181
C            2.88781080933703        1.92367905119168       -1.56185343796660
C            3.96241678668929        2.44474526414477       -2.44651750329459
C            5.04023571237440        1.37818149308407       -2.39067440448958
O            6.09710575075376        1.37475676690428       -2.95491422629916
C            4.51217811550181        0.26877993010417       -1.44893973755259
O            5.09365811644354       -0.74533830617788       -1.15775019120819
H            2.79695151944458       -0.99998714810591        0.22279688832087
H            1.96863273350939        2.46176315314789       -1.38917827616957
H            4.34723770671393        3.41038519206779       -2.10453414130968
H            3.61481114620443        2.59846030892772       -3.47268855764142
