12
 energy: -26.944682171349 gnorm: 0.000030451155 xtb: 6.7.0 (08769fc)
O            1.13028824260556        0.05009763276019       -0.09515118794251
C            2.47419675820847       -0.06544750594885       -0.09858055684018
C            3.28879059748213       -1.16217389358111       -0.09882674846745
C            4.60938279800996       -0.63547326510455       -0.10332979843372
C            4.49460024989339        0.76670759158321       -0.10551407500434
N            3.19899907411073        1.11842824779822       -0.10264181066299
O            5.69200926503924        1.31478409337077       -0.10971648288846
N            6.58430552938512        0.17191036291480       -0.11008261191735
N            5.93433636318659       -0.88303536299296       -0.10647549924094
H            0.72893522416819       -0.82746161733604       -0.09245073451677
H            2.99575119083462       -2.19101325456596       -0.09619554727911
H            2.78979470707599        2.03878697110227       -0.10320494680617
