12
 energy: -22.191778650460 gnorm: 0.000084312049 xtb: 6.7.0 (08769fc)
N            1.28912434710863        0.40164358687827        0.35416321382796
C            2.60690460935618        0.15171226769146        0.29913318487996
N            3.22208911335279       -0.17149829284763       -0.80456604202064
C            4.58084248602966       -0.44944991586813       -0.96308945371761
C            5.45180884130126       -0.40296058125384        0.11099547769781
N            6.17513661331688       -0.36188226636662        1.01326545268035
C            5.05084450727162       -0.77554424774278       -2.22229002025198
N            5.43264073254750       -1.04678243308369       -3.28044613360907
H            0.85785230524363        0.64812672124179        1.22534134329606
H            0.71769567786079        0.34907467345477       -0.47227367135472
H            3.18593896261576        0.22017916488560        1.20855449792333
H            2.68292180399530       -0.23755867698920       -1.66396784935147
