13
 energy: -28.211099535123 gnorm: 0.000041690290 xtb: 6.7.0 (08769fc)
N            1.13479452449167        0.00683195738317        0.08731216004519
C            2.48002818255571        0.01567990019744        0.09355439816932
C            3.34430096986163        1.12300012853880        0.09467548320009
N            4.59401157444571        0.61317385756080        0.10151253701996
C            4.46994215733323       -0.74322546331121        0.10431190330051
N            3.20110510988954       -1.12299720953492        0.09960492735273
N            5.59038598293396       -1.56124506008806        0.11133599999016
O            6.68478258117208       -0.98685694998558        0.11487704419497
O            5.45522709522562       -2.77530813178940        0.11364235876908
H            0.61368250312682        0.86215023228511        0.08380799681955
H            0.66388663283176       -0.87837429766008        0.08801509506926
H            3.14008190989637        2.17287086706673        0.09114958790639
H            5.47432077623591        1.10878016933720        0.10419050816278
