15
 energy: -29.952125966668 gnorm: 0.000164665446 xtb: 6.7.0 (08769fc)
O            0.88052526780597        0.34125557580746        0.46038275598838
C            2.24276523222597        0.16745115876249        0.21033231689347
C            2.93358142239637       -1.08514737100314        0.78828187983455
O            3.83579915955817       -0.26883268040519        1.54478219798856
C            3.13881597898470        0.92286235924126        1.21360211300654
C            2.33580342539688        1.54036873446343        2.34317783091983
O            2.39059792130567        1.21956429743371        3.49898139611645
C            1.39976719458385        2.62390482324918        1.82538931724618
O            1.70006335946343        3.43137625867768        0.99187951186837
H            0.36650194770736       -0.21169919382176       -0.14259608463718
H            2.49115700533335        0.36792484132473       -0.83806349053982
H            3.46172431622317       -1.72788825645994        0.08236582096298
H            2.28482064820199       -1.67545828899364        1.44194620889663
H            3.78830357158000        1.70182098347549        0.79646846766489
H            0.39935354923317        2.59067675824827        2.29168975779023
