12
 energy: -29.190644070562 gnorm: 0.000065817153 xtb: 6.7.0 (08769fc)
N            1.25310162740948       -0.66017357329385        0.39012590524974
C            2.47967336120414       -0.45565823242494        0.45272059245374
O            3.30403333963505       -1.38947604375659       -0.12682118705425
C            4.63024742605274       -1.24857148665263       -0.03847036914234
O            5.22335751720659       -0.37378796124490        0.52298756338810
C            5.31187159978794       -2.39030481657526       -0.81390025189316
O            5.91089663486893       -3.28946321532693       -0.29557523007281
C            5.18258181673631       -2.25351258018766       -2.33611380499411
O            4.79905208433531       -1.26165421963255       -2.88061619385539
H            0.66607201043465        0.04770753205332        0.81774153454724
H            3.02428276522108        0.37996708006905        0.91003324803385
H            5.49126981710792       -3.16798248302698       -2.87135180666066
