13
 energy: -26.330257266186 gnorm: 0.000074308773 xtb: 6.7.0 (08769fc)
N            0.97852579767133       -0.03368602773682        0.11286033744469
C            2.22470743499814        0.03318027940180       -0.01349126115351
N            2.96089022570572        1.25647194161831       -0.15743594796399
C            4.29546012941906        1.23632986774625       -0.28498128730437
C            4.99654085179046        2.54788254924398       -0.42854524083515
O            4.41639449986063        3.59983377722753       -0.43391770100541
N            4.99660069547421        0.14318212983234       -0.28921360266026
C            4.26721167650021       -1.00318003983312       -0.15223627329338
N            2.99679245708055       -1.09923776622677       -0.02288145209685
H            0.48515564382700        0.85233512887144        0.10944955486728
H            2.47970090826536        2.15138217789475       -0.16298443939337
H            6.08762922496034        2.45011270539928       -0.52773227451213
H            4.84368045444699       -1.91921672343897       -0.15564041209354
