16
 energy: -26.700204508321 gnorm: 0.000085432670 xtb: 6.7.0 (08769fc)
C            1.15224747464340       -0.23830586170434       -0.06670383455963
N            2.56428398729092       -0.03139110762874        0.13937032175158
C            3.29984559086272       -0.71858061746375        0.99057036229288
N            4.57917886821138       -0.53477177234317        1.17973031671469
C            5.33148655129958       -1.27898943154216        2.08848390404119
C            6.69072774607868       -1.20144556654077        2.39865754170128
N            6.91616123733620       -2.12978649970357        3.33046697775537
N            5.76919302870984       -2.73838237888976        3.57681883919078
N            4.79600156502574       -2.25523847612140        2.85098209181423
H            0.96060507773060       -0.51314811176941       -1.10514524026194
H            0.60148536098379        0.67551859787124        0.16134452109527
H            0.79999401674259       -1.03608110257626        0.58225028577656
H            2.99830009932423        0.69457043248875       -0.41754084955020
H            2.84315970661901       -1.49706528607912        1.59010188401424
H            5.08837404305286        0.17379683595178        0.66060079064443
H            7.46225564608843       -0.56107965394937        2.01687208757936
