18
 energy: -28.434040399761 gnorm: 0.000047841281 xtb: 6.7.0 (08769fc)
C            0.96216571379944       -0.20082972274388        0.16349258411787
N            2.37576400576879        0.02652394617843        0.21558168960409
C            3.25448676239618       -0.97178065739837        0.81971098738891
C            4.08720535678526        0.15943685490101        1.42956320820893
C            2.96057819514382        1.12361262730977        0.99241423704319
C            2.08086387264083        1.60403021498695        2.11663633691692
O            1.45911440763326        0.85741318587699        2.85102924804377
C            1.95779911707072        3.09957112540615        2.24789577529320
O            2.26076164833449        3.89142106618364        1.39083623839089
H            0.78361911393240       -1.06549147870249       -0.47497744440923
H            0.47841364093280        0.67567182651831       -0.26880997366399
H            0.51837445538253       -0.39503277973720        1.15276816367156
H            3.74468979791657       -1.60233347844228        0.07628075636271
H            2.75832252460587       -1.59922880774491        1.56710031704024
H            5.02831646776401        0.34803309243739        0.92221045898752
H            4.24205603730240        0.10126420241559        2.50367457570487
H            3.25291597425555        1.97379529264114        0.36869619260628
H            1.60278290833505        3.41834348991378        3.24509664869219
