16
 energy: -27.433666306959 gnorm: 0.000133039951 xtb: 6.7.0 (08769fc)
C            0.75996176208837        0.04856901962992       -0.14519936282238
C            2.24006809233824        0.18339253158893        0.09937936954097
C            3.19625957076349        0.73389682289599       -0.92363921952292
N            3.25047568697913       -0.65711080385292       -0.48262610693323
C            2.82183732167433       -1.51790196420911       -1.56845941499573
C            2.39434389668668       -0.64450329427750       -2.72665289770351
O            1.91665466367624       -0.98909956802036       -3.77527177024802
C            2.74262937593959        0.80516339738645       -2.32337554003941
O            2.68222617481471        1.76896356547584       -3.04757801809239
H            0.27062315573520        0.98799516587961        0.10494354291937
H            0.35411629518735       -0.72994126335845        0.49977349888936
H            0.52116784846466       -0.18911683233029       -1.17958141223984
H            2.48340118381092        0.45540377205022        1.12287795792898
H            3.97230827814979        1.41431242310948       -0.60027897689101
H            2.03896216493116       -2.21088313692187       -1.25412164555781
H            3.68513452876014       -2.11237983504597       -1.88940000423241
