15
 energy: -25.398273453504 gnorm: 0.000126181723 xtb: 6.7.0 (08769fc)
N            2.51378989350858       -2.35881592206821       -0.48089564361029
C            3.79289900416390       -1.95477292078407       -0.70561005534279
C            4.75669442001325       -2.85950536761864       -1.10019864929808
C            6.18310983105692       -2.65431006285501       -1.17372220798308
N            7.04761314185345       -3.29615227329602       -1.85524668826249
C            6.63162178703696       -1.72173560140236       -0.12137615007314
N            6.17233113101627       -0.55775409955386        0.08984395720917
C            5.06715469797230       -0.01078483564089       -0.43004991097901
N            3.94065224880438       -0.59946705528593       -0.63104332181889
H            1.81269796749539       -1.63878590102480       -0.43692601760976
H            2.22581541711410       -3.28025705512316       -0.75949385545246
H            4.42728093957937       -3.86906018483119       -1.32547644887931
H            6.64337821230894       -3.95489583794537       -2.51961642236997
H            7.41683681229009       -2.07593731362038        0.53960216926477
H            5.08042449578607        1.06986443104990       -0.51568075479466
