10
 energy: -23.108468432576 gnorm: 0.000083313986 xtb: 6.7.0 (08769fc)
O            3.99345639790494       -1.25947395670953        1.18447316698252
C            4.17817390104465       -0.17515531152883        1.66429874709361
N            4.91327424636168       -0.00611126839862        2.82617056438117
C            5.90271748264489        0.81063126255374        3.01200058081782
N            5.95266553952838        1.98079174931894        2.41534631620833
N            5.27028131717826        2.49726994484029        1.50815238528028
C            4.24409763007031        2.06653215135087        0.80880150178838
N            3.62428481235949        0.96998984660351        1.11548256037341
H            6.60724816169733        0.63466281014070        3.80800382900855
H            3.81404051121008        2.75025277182894        0.09567034806591
