18
 energy: -28.431741331988 gnorm: 0.000159002853 xtb: 6.7.0 (08769fc)
C            2.09879102232384       -1.16743631709844        0.04866325115399
C            2.51037949750640        0.28651470023019        0.23760322273924
N            2.90366128067725        0.84823305209921       -1.03053075364467
C            2.86169195533349        2.24833524768884       -1.25284403214197
C            1.91303459561670        1.34122888102961       -1.98286854092331
C            0.48896634868145        1.34846347746110       -1.62168261499870
O            0.03873137411571        1.69552955658774       -0.54244004785599
C           -0.45380153004005        0.84353707858111       -2.69968351854212
O           -0.11152248750173        0.44014075081107       -3.77834541404211
H            1.89561599592884       -1.62739037375767        1.01191647906291
H            2.89161693811097       -1.71856927159073       -0.45049309938976
H            1.19894883501380       -1.22866798623787       -0.56251986348043
H            3.39091706520046        0.34944246815178        0.88394306505700
H            1.69316394566399        0.84911363335097        0.71580994986052
H            3.68071315186623        2.66720832621105       -1.82120395703190
H            2.44883463863365        2.89268970909489       -0.48175797500791
H            2.12235252290947        1.08225538682208       -3.01486293771447
H           -1.51510515004037        0.90576168056498       -2.39669321310022
