12
 energy: -24.542354125621 gnorm: 0.000044994075 xtb: 6.7.0 (08769fc)
N            1.21219975885871       -0.05605334549368        0.12445888853242
C            2.54718981996333       -0.06904995687371        0.03746638771578
N            3.28646248264066       -1.12246886842952        0.02127417155726
C            4.68618186091989       -0.77067998326464       -0.08054095792993
C            4.77732488556435        0.73700202312386       -0.13097401230229
O            5.75428103344805        1.43252548184581       -0.21478403768900
C            3.31473596083425        1.21243357083244       -0.05095435450547
O            2.89230941153910        2.34177315286038       -0.05778572731922
H            0.70490624889559       -0.92112002056070        0.18213272614884
H            0.72639358641392        0.82363623495565        0.12824745599324
H            5.12170230473818       -1.22115797945741       -0.97872415121723
H            5.23641264618397       -1.16961030953849        0.77817361101559
