16
 energy: -26.626723915408 gnorm: 0.000061156367 xtb: 6.7.0 (08769fc)
O            3.39490386273013        1.51406826015512        1.02658168662045
C            2.68190742460761        0.77778155950208        0.27914193521270
O            1.61525142394979        0.25909625759931        0.58204151108864
C            3.22474931929523        0.52238529454922       -1.16658150299372
C            4.74716224046054        0.32227048962930       -1.21914116637143
N            5.44713149521646        1.42048029926031       -1.86284080862057
C            5.59959285524177        2.60898846897185       -1.31417962784792
N            5.15118125768598        2.91357088977386       -0.14159781232083
H            2.93054302038563        1.38290371578258       -1.77185574085368
H            2.69810597559254       -0.35006251750780       -1.55141064694400
H            4.98960691260384       -0.58617174690335       -1.76960670304813
H            5.13040871124531        0.22077295739811       -0.19788202093515
H            5.76643720552445        1.27793227138004       -2.80851424368546
H            6.15797076246876        3.33439633116394       -1.90256223090565
H            4.40585122716237        2.25839559415478        0.40476395348510
H            5.31413630582963        3.83763187509066        0.22417341811962
