16
 energy: -25.390996572776 gnorm: 0.000053593513 xtb: 6.7.0 (08769fc)
O            4.12005036611014       -1.67653316865791       -1.17718435065390
C            3.77022085159706       -1.73589717333381       -0.00961814329964
C            2.78538522568222       -0.90462846007175        0.60662635315887
C            2.09801902148612       -1.15091374277391        1.77656246365889
C            1.08437598899910       -2.25395820764796        1.71351592792257
C            0.14206097033207       -1.07179408181073        1.27666270598916
C            0.99633482906483       -0.08182335865907        1.95979344136064
N            0.67013732715244        0.11266259905152        0.57905275631738
C            1.94082173902084        0.10634519385345       -0.14954056031138
H            4.25391039532109       -2.45251201827801        0.68439131923987
H            0.72138476980885       -2.63653296142196        2.66589152728112
H            1.30028591475579       -3.06704233833637        1.02274149334458
H           -0.93203525152592       -1.16078328792131        1.27749584190112
H            0.83169731394003        0.63293265503206        2.74267409650837
H            1.84011228683922       -0.25267426810006       -1.17650473526530
H            2.30501825141609        1.13688261907578       -0.16856013715234
