13
 energy: -26.664375587901 gnorm: 0.000007150944 xtb: 6.7.0 (08769fc)
C            0.96292152623499        0.02365043093445       -0.03589216066688
C            2.44671237399299        0.02958785968528       -0.03792725424447
C            3.29825354444608       -1.03156392322336       -0.03655049202925
O            4.63865843663241       -0.67111908357980       -0.03925053292985
C            4.61496179746516        0.64338949126156       -0.04234565050272
C            3.31663282487151        1.16601655563977       -0.04182573174084
N            3.47694755888930        2.50756456400344       -0.04527813508062
N            4.67308859514081        2.80804003541810       -0.04762376620113
O            5.49886717171186        1.61435630567024       -0.04588218767280
H            0.58974548176994       -0.99623368732357       -0.03302881931820
H            0.58802124244472        0.54384599417077       -0.91588359088253
H            0.59041254795942        0.54789766268891        0.84271027786315
H            3.10631689844081       -2.08585220534580       -0.03377195659386
