14
 energy: -26.044699216748 gnorm: 0.000038546525 xtb: 6.7.0 (08769fc)
N            1.00370713740213       -0.03021910820262       -0.23032380414602
C            2.26320835277695        0.08052352999518       -0.07815826507254
C            3.02347431287193        1.32511582021758        0.09896990367390
C            4.35758960631972        1.28729822670825        0.24793754380196
N            5.00610896942944        0.07988464648315        0.23398234791844
C            4.27065100930973       -1.05753609568914        0.06795593983528
C            5.03132100896366       -2.33279304864139        0.06151508244308
O            6.22740402461204       -2.38879126481867        0.19285492494335
N            2.99958703557871       -1.09697660294517       -0.07957050769466
H            0.51053611760204        0.85952541179977       -0.22221229608515
H            2.48702976453235        2.26092481666593        0.10597562095001
H            4.97286541557533        2.16493419008779        0.38164711044275
H            6.00929934687568        0.00292452566241        0.34232828470648
H            4.39452789815029       -3.21883504732310       -0.07522188571687
