19
 energy: -24.191422766348 gnorm: 0.000179279435 xtb: 6.7.0 (08769fc)
C            1.44390838432074        0.30888699228875        0.07687789832157
C            2.86000851605175       -0.10402471271283        0.31842032835872
C            4.15230041740202        0.64561244324053        0.21959862931796
C            3.68913407702842        0.11695321386655        1.55659035611561
C            4.47428626747175       -1.16574837419760        1.84366708056698
C            3.85915535561286       -2.18320250104534        1.07407503751695
C            3.52270794940705       -1.40521501137292       -0.14412170283505
C            4.91623977093730       -0.58496095296253       -0.25768329428741
C            5.74984908230349       -1.00394607762567        1.02252470189172
H            1.26333424982392        1.29135148906257        0.50963729898729
H            0.75711360384118       -0.40373376487155        0.53339889938538
H            1.23241181167004        0.35671572176005       -0.99157580810478
H            4.36289453222018        1.67665119497230       -0.00795492568515
H            3.37854485361121        0.77280581842170        2.35361730773787
H            4.17148657597018       -3.21352444364641        1.05975480305407
H            3.14747192760006       -1.92037076254060       -1.02147530277840
H            5.43757479917667       -0.53218443332207       -1.21220489276923
H            6.40191082855353       -0.19406576008424        1.34768796245327
H            6.31957699699765       -1.92069007923069        0.89299562275263
