16
 energy: -28.984462926732 gnorm: 0.000053921849 xtb: 6.7.0 (08769fc)
C            1.11578985363177       -0.02379556666920       -0.00358956713453
N            2.56942538592023        0.01380351707343       -0.03546823435171
C            3.10865452286572        0.43491892940255       -1.32293991675287
C            4.55190551491081        0.07371280805353       -1.35765923802497
C            5.22867523082000       -0.89051812980127       -0.62650419438956
O            4.75575677231572       -1.72546868888505        0.29852188817626
N            6.52118321947192       -0.84064463397539       -1.02580726988898
N            6.66218651352859        0.04310495445787       -1.90502677890942
O            5.46018131206451        0.65279168835724       -2.15290302576078
H            0.79936533999137       -0.31670048248433        0.99517182619891
H            0.77027852638130       -0.77438029653362       -0.71443270477605
H            0.65197277300835        0.93793261172186       -0.25590720913219
H            3.80863576820597       -1.50668587832429        0.42509350142218
H            2.90410739446771        0.64239310441587        0.69128905542932
H            2.98706162669442        1.50901389356809       -1.53505339717313
H            2.58055024572158       -0.11856783037726       -2.10975473493249
