16
 energy: -29.005318318462 gnorm: 0.000117089333 xtb: 6.7.0 (08769fc)
C            1.16595329435268       -0.27895702984632       -0.36737058011251
N            2.53987361566439       -0.02654593964479        0.04109757455816
C            3.16187350985161        1.07429650751794       -0.29208887256242
N            2.63092593508791        2.05019195648833       -0.99598862737789
C            3.25354334194249       -1.04570799009598        0.79773732652354
N            2.74130622834552       -1.70037538721417        1.72038069319643
C            4.74768667593092       -1.29305481176895        0.30559187610046
O            4.92621228606439       -2.39573015342962       -0.19229972147658
O            5.48612383515821       -0.31299832240998        0.45415238406617
H            1.08430350830258       -0.23544816355718       -1.45449481973652
H            0.48923715272544        0.44542396676973        0.08967716922000
H            0.88580846558106       -1.28112379621569       -0.04765287353819
H            4.19567515904362        1.15566150324219        0.04330574054765
H            1.69439073510097        1.99602391090536       -1.37050001698797
H            3.18017645186328        2.86755521628480       -1.20824354645439
H            1.77614980498471       -1.49476146702558        1.98233629403409
