13
 energy: -24.709773913892 gnorm: 0.000020304834 xtb: 6.7.0 (08769fc)
O            2.07939876335544       -0.67429819562541       -0.11625285238972
C            2.10518993334745        0.67448101531987       -0.11435402566612
C            1.00272767496497        1.46433227328858       -0.02559691181581
C           -0.23771911395045        0.80093145355202        0.07000880030772
C           -1.56877502776121        1.07956333446102        0.17592684576417
N           -2.31718415850714       -0.07144530884785        0.23147581059653
C           -1.52647504268987       -1.10584172190162        0.16592370063030
C           -0.15982971418272       -0.68691139476680        0.05944415553918
N            0.93274654375357       -1.36060539947021       -0.02821621344343
H            3.11745820564854        1.03767109413212       -0.19294575878586
H            1.08632187209933        2.53869139070873       -0.02890077190016
H           -2.06018479264381        2.03283659632038        0.21767080115392
H           -1.89409514343408       -2.11281513717083        0.19192642000927
