13
 energy: -24.709477727475 gnorm: 0.000132472815 xtb: 6.7.0 (08769fc)
O            0.96317102994931       -1.36266158859553       -0.02147001623717
N            2.10632547656797       -0.68004689075723       -0.10960420701722
C            2.10555853288494        0.61634809937194       -0.11139396159349
C            0.94788129730890        1.43795976536715       -0.02442299131932
C           -0.24229341130593        0.78403340289978        0.06771817847721
C           -1.62811220243141        1.06547972607947        0.17383348897518
N           -2.32995062310203       -0.04094183247162        0.22961543685777
C           -1.49298801922999       -1.11983099125487        0.16680430052872
C           -0.19858223610548       -0.70231505084324        0.06654264991555
H            3.08974775996729        1.05137296386183       -0.18777819393568
H            1.03624886630758        2.51327324756626       -0.03284382837936
H           -2.09663623791039        2.03004501580810        0.20849982131199
H           -1.88619023290077       -2.11583586703205        0.19859932241583
