14
 energy: -28.370857600045 gnorm: 0.000072485705 xtb: 6.7.0 (08769fc)
C            0.96685828547083       -0.01338866352356       -0.06667266123957
C            2.45656241992740       -0.13495211476756       -0.06622908533844
C            3.20424007133933       -1.28484748068085       -0.06946871063351
O            2.70579916871364       -2.53814791936967       -0.07456443732390
N            4.55992357921430       -1.23327841129617       -0.06754113165129
C            5.15381716036295       -0.09142655447794       -0.06354875537292
C            4.44825846771330        1.18107050467816       -0.06109981695390
O            4.94028581468165        2.28671791266322       -0.05792674956960
O            3.08241234843718        1.06324538296385       -0.06217543380252
H            0.47230114937966       -0.98028364023828       -0.05848346719303
H            0.64941566362668        0.54205579206783       -0.94899301136708
H            0.65083540944238        0.55608828998849        0.80709826203776
H            1.73978422685183       -2.53536031465740       -0.07730739039670
H            6.23412623483888       -0.08021278335011       -0.06193761119530
