14
 energy: -28.355786941340 gnorm: 0.000067872636 xtb: 6.7.0 (08769fc)
O            2.05529098630957       -0.19935061981836        1.44426980735102
C            2.58489650819437       -0.04635802421915        0.37533932442826
C            3.19880947897770        1.25055875216318       -0.10732462222760
C            4.02286617908845        1.05253846956061       -1.38305990898442
N            4.84967280715600       -0.13044252077831       -1.25286743257210
C            4.34012513588072       -1.31311578201647       -0.87024848864456
O            4.96991949872602       -2.33490772816540       -0.71181996519583
C            2.82601832299057       -1.18348305295173       -0.61329735489078
O            1.98141571104443       -1.84380237705982       -1.15221090756116
H            3.81986753370865        1.64001568498902        0.70436757824698
H            2.39499684308344        1.97191672338891       -0.27202931004826
H            4.67266209264059        1.91174073991235       -1.54831255286915
H            3.35759081030606        0.95084133546446       -2.24926441006804
H            5.83282809189343       -0.08601160046931       -1.48346175696442
