12
 energy: -28.790368073487 gnorm: 0.000118675156 xtb: 6.7.0 (08769fc)
N            1.01603066614181       -0.03627539766577       -0.03971180866985
C            2.36670016949092       -0.07662916531208       -0.03493270480262
C            3.12640411659075       -1.21967239334241       -0.03177040311489
F            2.60020060584444       -2.45671343788233       -0.03286302908713
O            4.45711761740704       -1.22948668862019       -0.02738981813756
C            5.16626984839137       -0.03986160510534       -0.02578188171225
O            6.37396245232444       -0.08132023292712       -0.02153182635286
C            4.31971110316455        1.14151029490079       -0.02885036816218
N            3.03168243365623        1.11626184647395       -0.03324391472007
H            0.47316398138525       -0.87895236353058       -0.04059435699624
H            0.57348173426735        0.86391673961768       -0.04124952722307
H            4.80465527133585        2.10704240339339       -0.02754036102128
