13
 energy: -24.762309172313 gnorm: 0.000066716277 xtb: 6.7.0 (08769fc)
O            0.95214060747965       -1.40993206530270       -0.02383416673173
C            2.04090131760508       -0.66766735874790       -0.09473332223932
N            2.12448048681929        0.61870833526220       -0.08888627251152
C            0.98571655442014        1.35334912160657       -0.00075532434177
C           -0.22528789257767        0.73451913370195        0.07991395095211
C           -1.60726467242999        1.04967120026034        0.18153224170564
N           -2.33728984016608       -0.03663526186520        0.22380446486340
C           -1.52056671676018       -1.13533152701946        0.15533058967474
C           -0.22128228141700       -0.74163694303637        0.06598418447796
H            2.95047320543797       -1.24980902697888       -0.16567074866182
H            1.12339420972890        2.42570448967464       -0.00051195764276
H           -2.05095475397844        2.02589328718303        0.22209141512970
H           -1.93720022416166       -2.12266338473823        0.17603494532538
