14
 energy: -27.933889393646 gnorm: 0.000064989805 xtb: 6.7.0 (08769fc)
N            1.08210208647989       -0.00925536849087       -0.03759695320653
C            2.43760223710810       -0.09081989627829       -0.03052234360009
C            3.33252735560386        0.98531098771439       -0.02651451381540
N            4.59240715672557        0.50585526229091       -0.01998232850310
C            4.54570831910137       -0.85763489795073       -0.01961283634082
C            3.21117402177958       -1.26031819112070       -0.02610748872185
N            5.70487463393174       -1.60475501895240       -0.01354728236838
O            6.77792544348578       -0.99140061182515       -0.00843295068759
O            5.62300142950085       -2.83069595420515       -0.01343584594927
H            0.62764344875848        0.88266608440121       -0.03947165562842
H            0.53177458290270       -0.84548898725695       -0.03910879499787
H            3.12604674149530        2.03684093198362       -0.02804158671167
H            5.45266643347288        1.03332885873440       -0.01599963946420
H            2.86967610965391       -2.27495319904429       -0.02737578000481
