12
 energy: -26.868492549373 gnorm: 0.000055874751 xtb: 6.7.0 (08769fc)
N            0.87923577579354        0.32598292997609       -0.53300245142445
C            0.84291703495130        1.31809904432617        0.21850091861831
C           -0.18730642157063        2.02073429527944        0.97226095571340
C           -0.35398615451837        3.35814952927517        0.96505876686220
O            0.21976328158537        4.26718410091697        0.15854240138401
N            1.35524278132546        4.04188084097140       -0.57965016459867
N            2.14897779113376        3.18621495692423       -0.23111237296045
C            2.12606920038024        2.12004715039378        0.57698032067960
O            2.90600058717364        1.78389233791272        1.42500934939168
H           -0.00772691824469       -0.12213290586268       -0.75000838184698
H           -0.79032551565430        1.42812378009091        1.64528069992424
H           -1.12274144235531        3.83416393979578        1.56050995825703
