14
 energy: -26.045016272770 gnorm: 0.000035898122 xtb: 6.7.0 (08769fc)
C            1.00660722150329        0.01800238429920        0.03965440245335
C            2.49053437976616       -0.04778301996347        0.03699250372100
C            3.32311456652588       -1.13089749623466        0.03939667559926
C            4.64235718160008       -0.60869296156723        0.03492098579375
C            4.52173612343588        0.79560949432351        0.02998224435886
N            3.22973118662355        1.13753500903095        0.03119414713069
O            5.71666596778608        1.35043069120445        0.02562335150283
N            6.61784000509730        0.20181732088179        0.02811692292570
N            5.96864673860192       -0.85023049366658        0.03322442526661
H            0.59566672127907       -0.98688100893597        0.04307309987179
H            0.64309157541790        0.54257178328717       -0.84395381784946
H            0.64645873303449        0.54715223117192        0.92192245440522
H            3.03531535879912       -2.16150204416923        0.04377705725047
H            2.83708424052928        2.06513811033814        0.02847554756992
