14
 energy: -26.255791582428 gnorm: 0.000066850190 xtb: 6.7.0 (08769fc)
O            1.55237748942728        0.68782519036507        0.27376859516241
C            2.80079175613533        0.16920484186677        0.28342211201742
C            4.08959236943570        0.83037206044601       -0.03750167371396
C            3.89594808029057        0.29560518248512        1.37358722365509
C            4.52416302429118       -1.07661391048776        1.21945585125799
N            3.54889609280278       -1.92909576349905        0.89506062633904
C            3.27482392835274       -1.24029365047093       -0.31881249520050
C            4.63605203212265       -0.45527415573593       -0.69517049285368
O            5.53544396449098       -0.99239870505259        0.20333085389718
H            0.95810391388391        0.12626412242955        0.79301798678987
H            4.33851970749162        1.84662861612708       -0.28315122319384
H            3.83382223343839        0.90042954873664        2.25574880028001
H            2.68996050680653       -1.75666513369271       -1.07044724803983
H            4.97786490103032       -0.45819824351728       -1.71995891639719
