14
 energy: -25.896697692932 gnorm: 0.000046641459 xtb: 6.7.0 (08769fc)
C            0.97230610890394       -0.01601297360376       -0.03365659741760
C            2.49248135477481       -0.02661320319114       -0.13721200259234
C            3.00140760079269       -1.20108186850503       -0.92731328714572
O            2.34144516706730       -2.06394748223007       -1.43626073509157
C            4.53985235530907       -1.19453107482510       -0.94986451433286
O            5.21067444603195       -0.54077546250736       -1.70134176245385
C            5.06413065352298       -2.10372444316342        0.14215630844112
O            4.89638349770057       -1.93117752353091        1.31595367357380
H            0.64621430351167        0.84743562200179        0.53934931769279
H            0.62131125211218       -0.91964468662435        0.45840138482434
H            0.52675273614973        0.02712822657511       -1.02432878069669
H            2.95402688113783       -0.07290541268977        0.85530848883692
H            2.86256436767129        0.88255272768896       -0.62129268165666
H            5.56938927531399       -3.00106244539494       -0.26454881198165
