8
 energy: -16.902422979180 gnorm: 0.000085805282 xtb: 6.7.0 (08769fc)
C            0.00363131692721        1.26615532059823        0.00942478261308
N           -1.17290305690397        0.65195663434620        0.01236531582291
N           -1.17588036048620       -0.64601443605959        0.01640808392064
C           -0.00218088541738       -1.26562023742360        0.01731963504482
N            1.17435293720829       -0.65142211758949        0.01427599849940
N            1.17733022004533        0.64654948502214        0.01023324296658
H            0.00611041043918        2.34595773141115        0.00609590987047
H           -0.00466058181245       -2.34542238030505        0.02072703126209
