13
 energy: -24.696502833870 gnorm: 0.000118398330 xtb: 6.7.0 (08769fc)
N            1.47258140073245        0.22175530640502        0.72709345475019
C            2.63465487863417        0.20539080325364        0.25017968625471
N            3.49906583767106        1.25009426897484       -0.01111502383473
C            4.67593196813888        0.78100825344855       -0.53527989060277
C            4.67386612641496       -0.57259173038793       -0.65400844271056
C            5.70235846063621       -1.39105211416549       -1.14929532402748
C            6.55976753957708       -2.12118705585854       -1.56740836273361
C            3.37967435015928       -1.06568243012264       -0.16684100686496
O            2.95716743420120       -2.19503405847260       -0.09259977050187
H            1.10014573254770        1.14051787942106        0.96074677489039
H            3.29965784930452        2.22382699375247        0.15639780487665
H            5.46535717049573        1.46294605305566       -0.79865774504697
H            7.31328125148679       -2.75210216930403       -1.93391215444900
