13
 energy: -26.666078348883 gnorm: 0.000054712911 xtb: 6.7.0 (08769fc)
C            1.03731455007569       -0.03299304861119        0.03258826336420
C            2.51555763662205       -0.14148675840679        0.02990388927919
C            3.33614367224664       -1.22687052950336        0.03275831532498
C            4.65808755127122       -0.69765740624575        0.02777020219254
C            4.49320596088470        0.69174905181267        0.02226657257748
O            5.66093944689904        1.29133766602209        0.01731518559951
N            6.59679139081991        0.18484477811157        0.01999088550540
N            5.99421259947717       -0.89377935715150        0.02581474715172
O            3.22908424282223        1.05750317696914        0.02334951851711
H            0.59993596989016       -1.02629921441884        0.03570889794761
H            0.69732006589552        0.50997534668379       -0.84840724598512
H            0.70074585756740        0.51388727528436        0.91249967461022
H            3.04286105552828       -2.25502098054620        0.03772109391514
