13
 energy: -24.372734780551 gnorm: 0.000144195574 xtb: 6.7.0 (08769fc)
N            0.91740579540060       -0.01467735697443       -0.04915737992151
C            2.17344373085877        0.03303282748768        0.08730621452403
N            2.94833824494084        1.20103886825009        0.10997291575097
C            4.29043298543264        1.18522666517867        0.25864868274333
C            4.93868148288042       -0.00649044167011        0.39436172884001
N            4.27378137658470       -1.18002251886857        0.38456199931271
C            2.98488261571837       -1.17887381707511        0.24234605245522
C            2.30758655642244       -2.42440296705538        0.23541033756610
N            1.77150162279118       -3.43792972748788        0.23150210926722
H            0.45412732509243        0.88450804322552       -0.14886874170941
H            2.46024791592713        2.08385892047770        0.00860128443740
H            4.80209573710109        2.13551712739436        0.26371968747210
H            6.00717461084939       -0.07244562288254        0.51549510926182
