14
 energy: -24.134380589636 gnorm: 0.000017709206 xtb: 6.7.0 (08769fc)
N            0.97430587555715       -1.40124419218547       -0.02751337096503
C            2.10929318789100       -0.69546785914499       -0.11623544064454
C            2.07442389444991        0.69218212435072       -0.11453567704774
N            0.95601408811945        1.40733648604330       -0.02804145715338
C           -0.16681841762201        0.73456564981603        0.05965804886415
C           -1.52095169873599        1.10393584105168        0.16518167848966
N           -2.29880840726926        0.03635499346887        0.22673131581560
C           -1.53269841671304       -1.08518434933960        0.16766388857710
C           -0.20924957496777       -0.75097743901490        0.06398178627923
H            0.99404752758663       -2.41607278038319       -0.02816252400433
H            3.03599393081853       -1.24154761373957       -0.18792422540700
H            2.99270632918452        1.25553402896109       -0.18645583455604
H           -1.93165177282614        2.09462714937496        0.19659485574248
H           -1.99227654547299       -2.05497203925894        0.20419695600985
