17
 energy: -29.105728281227 gnorm: 0.000042044393 xtb: 6.7.0 (08769fc)
C            1.12289047832380       -0.05694017081813        0.15200812303241
C            2.64011818003084       -0.03653393679417       -0.05131521802711
C            2.99554869148462        0.01098714966050       -1.54821376097318
O            3.21141054454794       -1.19764857024633        0.55027765788191
C            4.33357305289715       -0.88020360744430        1.33740766816142
C            4.39222175139971        0.61030983921463        1.51142151889439
O            5.15563803754639        1.25313156811446        2.18239704755478
C            3.26893904374221        1.16150836729944        0.62459406913205
O            2.97624409071928        2.31948243138160        0.48656568069024
H            0.70068798342802       -0.91225712158156       -0.36762367479743
H            0.69151853663596        0.86111895663868       -0.23745327056744
H            0.89072442533990       -0.14022843854302        1.21116167423835
H            2.58673232976568       -0.86946623388094       -2.03645946273283
H            4.07550954647095        0.01755844387547       -1.68160300057851
H            2.57662736061585        0.90786372284457       -1.99614029753682
H            5.25748667225802       -1.22814184887094        0.85028148233659
H            4.25197927479366       -1.39259055084996        2.30281376329119
