16
 energy: -27.048129035470 gnorm: 0.000151530320 xtb: 6.7.0 (08769fc)
C            1.08473971588155        0.00330010971982       -0.16722169457080
N            2.48545176845223       -0.02072005721046        0.15247251796671
C            3.27414949901301       -1.13174075212311        0.29711380550868
C            4.55098911624551       -0.80994114026332        0.59809194700522
C            4.62353288766259        0.62535830651775        0.66010587252614
N            5.69458915807317        1.27365907913791        0.92487023562339
O            5.60817594612490        2.66544127071524        0.94857575570347
C            3.23640232332825        1.11131314146629        0.35888974589375
N            2.72431393935001        2.27251251548074        0.27924207680804
H            0.72085741660254       -1.01616242144168       -0.27343714013512
H            0.92478697648086        0.55168809916783       -1.09762474375616
H            0.53195841750535        0.51273290736710        0.62441296178867
H            2.84587622683824       -2.10972613752874        0.16884018764271
H            5.37474380706968       -1.47240874759627        0.76495408338319
H            6.50877786973764        2.95242151881090        1.16267227500739
H            3.37910493163446        3.02805230778000        0.45234211360472
