15
 energy: -27.589849568120 gnorm: 0.000115941535 xtb: 6.7.0 (08769fc)
O            1.34479099386944       -0.64638521811696        0.05844538627597
C            2.49672030917138        0.10731222531038        0.19175879861876
C            2.65349418103521        1.44636676568369       -0.56473794306000
N            3.95548267135082        1.90008260636796       -0.09173497639745
C            4.49643228324170        0.84643624473808        0.40234032664721
N            4.58780814732169        0.62689115959895        1.79251988683823
C            3.38197266299815       -0.20076944294474        1.51227840785467
C            3.83332347267093       -0.52997270983540        0.12090989334874
O            4.31921907331164       -1.63863211830933       -0.50665138315287
H            0.59912904321416       -0.17063507394206        0.44758280338615
H            1.94884497500387        2.22502766702053       -0.26062011490735
H            2.56417132047616        1.28645254950548       -1.64725864257675
H            4.49354680900794        1.48342861421838        2.33954810544791
H            2.97432565852255       -0.82132779682417        2.29351649002350
H            3.59542839880435       -2.26641547247077       -0.63431703834672
