16
 energy: -27.033598874067 gnorm: 0.000076217421 xtb: 6.7.0 (08769fc)
C            1.18109323528399        0.11893860381198       -0.10784439391836
N            2.63103599040941        0.07829219734835       -0.07101999896212
C            3.22436079040964       -0.07384242788276        1.23834268305271
C            3.31200233603071        0.17768157543467       -1.23095329161461
N            2.84612879895023        0.34773095308503       -2.41446434940235
C            4.80840595804755        0.13790364217670       -1.29297878424829
O            5.60519707881008        0.47513780121863       -0.44920917199734
C            5.22572452058143       -0.29940653375387       -2.61796570045764
N            5.63155127079183       -0.68903911218763       -3.61550988661914
H            0.79603957722077       -0.17244588944167        0.86551319880396
H            0.79811212485443       -0.57838585584387       -0.85697252774089
H            0.82170862034568        1.12512924119849       -0.34295735335261
H            2.91246758085834       -1.02438269026972        1.67994903089986
H            2.89466046298257        0.74123817966440        1.88731701584374
H            4.30752988077465       -0.04990932869244        1.18271166172357
H            1.84524177364874        0.48676964413361       -2.49274813201047
