15
 energy: -27.702392993244 gnorm: 0.000124285356 xtb: 6.7.0 (08769fc)
N            1.50142586420937       -0.12379535701781        0.90086653590719
C            2.40766302111172       -0.01859081413001        0.02334242564027
N            3.12104814676803        1.08179908315050       -0.33747711776920
C            4.08580876085782        1.01838094922120       -1.41236551339379
C            5.08050901218199       -0.10977717128984       -1.12906284785710
C            4.38225506420851       -1.37475762572476       -0.68297775525746
O            4.94895789273235       -2.35847581273425       -0.28295882357867
C            2.85477897035970       -1.25936008656946       -0.70948651512987
O            2.12919200580518       -2.04189564308899       -1.26030286019062
H            1.27112197042525        0.74234351732110        1.38331310043030
H            2.85622584979064        1.97901436417588        0.03956895623181
H            4.60730212106190        1.97398989707628       -1.47326516632302
H            3.58142151246224        0.83745801650277       -2.37164638757497
H            5.77617703591025        0.17400784897635       -0.33393650670482
H            5.67901277211504       -0.33727116586897       -2.01411152443000
