13
 energy: -24.788912769370 gnorm: 0.000050827983 xtb: 6.7.0 (08769fc)
O            1.01415785921710        0.14306586836486        0.03393059810762
C            2.21432225488915        0.08897486736398        0.02791663975387
C            3.12585039578724       -1.08579668358505        0.02431800919389
C            4.40516296728981       -0.67313566192327        0.01730043395807
C            4.40045630816387        0.77523803695312        0.01609897967408
N            5.22899883302166        1.78049766704580        0.01092330596200
C            4.43650411782859        2.89810975177963        0.01407133706753
C            3.11124656928666        2.56415237741883        0.02128002447295
N            3.08968566732341        1.19033324261190        0.02255015393364
H            2.75261937212637       -2.09192291278024        0.02715540333189
H            5.29546692479257       -1.27295566043063        0.01322158865662
H            4.88277124327794        3.87227093263045        0.01093086365278
H            2.22190748699563        3.15948817455062        0.02539266223506
