19
 energy: -26.077846714284 gnorm: 0.000109858908 xtb: 6.7.0 (08769fc)
C           -2.08685716876096       -0.04930498958726       -0.52176359984141
C           -1.63445828013676        1.44520061702868       -0.47828580172986
C           -0.27121036864766        0.91596468357643       -0.01921473931408
C           -0.24226457969661        0.24116317783995        1.42573434577369
C            0.53707741728179       -0.65389358231597        0.47497714946950
O            1.62190657473164       -1.52217977566232        0.12818765922193
C            2.08262527430015       -0.49968767047602       -0.80754912396875
C            1.25578724617174        0.60149016912959       -0.08521061264499
C           -0.58706195199719       -0.46381754436165       -0.59375858511441
H           -2.64394977802819       -0.33689428272111       -1.41035220349913
H           -2.63929613973515       -0.36605767630947        0.35730075591493
H           -2.13999351184373        2.10849871813907        0.22100417745382
H           -1.61102491095667        1.89328116618147       -1.46894705527955
H           -1.16310498021168       -0.14462165787488        1.85346577583007
H            0.34426766799103        0.76067696363664        2.18023573293561
H            1.83179789818240       -0.76023605651626       -1.83604352352895
H            3.15703717025403       -0.34678644399159       -0.70985650891307
H            1.88387129108828        1.20118666254593        0.57109190560808
H           -0.29519886998644       -0.66802247826124       -1.61961574837344
