11
 energy: -22.763474929127 gnorm: 0.000054151702 xtb: 6.7.0 (08769fc)
O            1.12664325717672        0.00846956032096        0.71003908571844
C            2.21515442919215        0.05229270051353        0.20379157178060
C            3.10163729078977       -1.09251646529608       -0.19482028583859
O            4.30914004913893       -0.57681876442103       -0.71550246823129
C            4.27911559312281        0.83383573654085       -0.78071509987301
C            2.99145296808555        1.32165328897087       -0.18135366467934
O            2.62341793687000        2.45530010981364       -0.03150385307473
H            2.60080627656890       -1.70938400368368       -0.95399305399683
H            3.32031437648605       -1.73503246998311        0.66721950753027
H            4.35422918425496        1.16102575091652       -1.82718192337321
H            5.14136863831416        1.24294455630754       -0.23954981596232
