15
 energy: -28.037679645804 gnorm: 0.000115371426 xtb: 6.7.0 (08769fc)
O            2.68614930405160        0.10482127770645        1.12923401526393
C            2.26897340413799       -0.46319226105121        0.15884300353880
C            3.08222292672085       -0.87035849970579       -1.06347914653154
O            2.49399918359330       -1.08869963131346       -2.10803742929919
C            4.52538390340837       -0.97583823460708       -0.92120067667849
C            5.29458289693414       -0.81005345784012        0.16456344198435
C            6.71824651661600       -1.02959599110936       -0.19949561224266
O            6.73047917975762       -1.35854330904677       -1.57851474426988
C            5.40809454706843       -1.32910172610549       -2.09216052359161
H            1.20005160652294       -0.71982287752564        0.03692256560340
H            4.98503407022988       -0.55519643794288        1.16080346746425
H            7.16446099157165       -1.85025509676818        0.38110831972557
H            7.32422616182521       -0.12812197588865       -0.02365620367375
H            5.14811794489367       -2.30824377884938       -2.51497091161410
H            5.33071736266834       -0.58081799995245       -2.89214956567908
