16
 energy: -25.339959087430 gnorm: 0.000072858155 xtb: 6.7.0 (08769fc)
O            1.83826073635352        0.72320796276011       -0.27494432634190
C            3.00452358047340        0.11919753258161        0.12349586761682
C            4.39825515185511        0.63570421328529        0.17629348264932
C            3.71017852354570        0.20400563936537        1.45839911416465
C            4.28487484217777       -1.18223648524073        1.75838377610846
C            3.61108535507856       -2.10484963251887        0.91476758196180
C            3.54556882704388       -1.24932009496407       -0.29449555408230
N            5.00168949784776       -0.63045877647621       -0.26413400159638
C            5.61957576165315       -1.15511529725890        1.01264255681577
H            1.09976031307776        0.37982386492059        0.24518339401447
H            4.84270881949067        1.59169039808410       -0.03496702747199
H            3.43121482690883        0.89752938051037        2.23283161221961
H            3.79145008061218       -3.16443084130394        0.89684105407988
H            3.28784123163030       -1.67654147594088       -1.25549895833575
H            6.34341474875660       -0.42978137034883        1.37812183864909
H            6.08011770349480       -2.12666501745502        0.85953958954843
