15
 energy: -25.355891606447 gnorm: 0.000197151342 xtb: 6.7.0 (08769fc)
N            2.36173208040620        0.07442632967476        1.50650473862376
C            2.51587414378704        0.14261982876539        0.17429278462892
N            2.03838719286628       -0.86431758011588       -0.57489242774078
C            3.12209436591355        1.32994667177412       -0.45502958203358
C            4.47594422206836        0.64919226004502       -0.35827951670984
C            5.24438218458934        0.81055527933781        0.77719314154010
N            5.83771200956442        0.94717154093205        1.76207854662716
C            4.90882528371159       -0.16363274212734       -1.38674360847308
N            5.21480763268523       -0.86324786226466       -2.25714076235233
H            2.26432806930659       -0.82886094398286        1.94559343031961
H            2.77557654897990        0.79377664812323        2.07791293003131
H            1.93647871806286       -1.77957574922239       -0.16244733365697
H            2.21010196474080       -0.85093249879564       -1.56766778805702
H            3.06035309682577        2.23936032777970        0.13816518101516
H            2.80938248649198        1.50964849007673       -1.48098973376248
