10
 energy: -27.731563174599 gnorm: 0.000174189324 xtb: 6.7.0 (08769fc)
O            1.70658862383699       -0.93963035910095        0.18354336935807
C            2.19452600497499        0.12144665988416       -0.07667259180879
C            3.17696016898280        0.34172443013718       -1.16565999237169
N            3.27399935504152        1.50780879249510       -1.70340686804505
O            3.99550076271297        1.68172366696929       -2.80223505240410
N            4.20675719816569        0.57294941578501       -3.58681900944005
N            4.22350834802085       -0.52539114976738       -3.07108321942700
C            4.08543934124817       -0.72711153934840       -1.68910837394243
O            4.66840405508017       -1.56474991397682       -1.06243830285435
H            1.97409614193585        1.04721999692279        0.48155004093538
