12
 energy: -25.378115718959 gnorm: 0.000121983945 xtb: 6.7.0 (08769fc)
O            1.01116075164104        0.00682318226583       -0.04611638433046
C            2.21229928944249        0.05956583037490       -0.05404585237878
C            3.16877227259794       -1.11846550263869       -0.05926030864391
C            4.44520133420916       -0.70661364361294       -0.06823904480000
C            4.42053918859099        0.74994149026032       -0.06894701421309
C            3.12738661470767        1.22621270736313       -0.06061824939487
N            3.16715555059824        2.58784701912002       -0.06146055333716
C            4.43342621481130        2.86362820593569       -0.07011212429302
O            5.25888241859379        1.78720121004876       -0.07507570641458
H            2.81205679172857       -2.13147516489012       -0.05602876802676
H            5.33518347119796       -1.30930438215405       -0.07380423252812
H            4.86360610188086        3.84440904792715       -0.07351176163925
