15
 energy: -29.993914095014 gnorm: 0.000102786952 xtb: 6.7.0 (08769fc)
O            0.97816239844366       -0.07021104345552        0.08843025892704
C            2.38119707759681       -0.12041741074455        0.04940884317130
C            2.97802729100388       -1.40370331232509        0.65732523367877
C            4.30488268329184       -1.00526600549019        1.24641825039697
O            5.18756456582997       -1.72605355154770        1.62249325617818
C            4.34074823455795        0.53425376138890        1.28872644002745
O            5.30409035727607        1.20962550044760        1.50794453811185
C            2.92872456412595        1.00846027926058        0.95154237819083
O            2.21258514555443        1.07081039784358        2.15976247570186
H            0.61329258255588       -0.76707349192179       -0.46912372250745
H            2.75004625775676        0.02472757482719       -0.97626412012107
H            3.08042630651584       -2.22720671333824       -0.04963507015250
H            2.34071303472937       -1.74057235253073        1.48215424332156
H            2.93354529106435        1.98645000183817        0.45029332107226
H            1.27342420969726        0.98852636574780        1.93306367400294
