17
 energy: -26.444196989943 gnorm: 0.000090060009 xtb: 6.7.0 (08769fc)
C            1.04153546293265        0.05051080521335        0.00019592173839
C            2.56319638707310        0.04520732718416        0.08124390789124
N            3.10389057771089       -0.41656167879190       -1.17464505208766
C            4.35595592595804       -0.50565113672823       -1.33736946114616
N            4.81085055108914       -0.96125123028465       -2.58166411620313
N            6.06903916168712       -1.11032457668450       -2.91138130573273
C            6.96815782715328       -0.81530624410137       -2.02266836474293
C            6.56903399320725       -0.34412291333990       -0.73125963869948
N            5.33568827031730       -0.19534372391888       -0.40073347959587
H            0.61742481938837        0.39686994262127        0.93953581785213
H            0.67684583711435       -0.95227578809043       -0.20671755118835
H            0.71438308610759        0.70726601276759       -0.80170103488193
H            2.89562165429761       -0.60714282837446        0.89960568531844
H            2.93291840359690        1.05476022350379        0.30454867095485
H            4.11847513712956       -1.19482508593094       -3.28372933899500
H            7.99887280893875       -0.94250642639213       -2.30708650096716
H            7.31179009629809       -0.09483267865278        0.01798584048537
