14
 energy: -26.346658128759 gnorm: 0.000040016100 xtb: 6.7.0 (08769fc)
O            1.59350356169987       -0.12421117154982        1.01603188521244
C            2.59072274520091       -0.06814654059057        0.34485727685961
C            3.34191576549533       -1.20010694662432       -0.29966565350528
N            4.61404518997066       -0.65225748176658       -0.72602430045060
C            4.46435318795479        0.77698977656918       -0.95646081577789
C            4.03887398663543        1.10563129302891       -2.31463039310682
C            3.66218007971230        1.27713765187364       -3.43814205365550
C            3.34079159267195        1.21640503135777       -0.03425837832442
O            3.06608834920016        2.33188171256324        0.31498286405822
H            2.71861689739733       -1.57596302449087       -1.12732048646446
H            3.49691098124809       -2.02512861577348        0.40148730774351
H            5.00955715907378       -1.13467575222489       -1.52431444949371
H            5.40125807448366        1.30023320317787       -0.73143950965197
H            3.36141242924480        1.46433086444705       -4.42632329343315
