13
 energy: -24.369162726050 gnorm: 0.000037951750 xtb: 6.7.0 (08769fc)
N            0.95627437403952       -1.33607182648821       -0.02540851580255
N            2.09050985665797       -0.68318386948109       -0.10820400566107
N            2.12200576589652        0.59086083971129       -0.11006261381497
C            1.00796539115613        1.33475053750700       -0.02796874868052
C           -0.23276229344360        0.74927482871196        0.06311465092514
C           -1.59113674920195        1.08799716118093        0.16317170815406
N           -2.34903897961604        0.00243741819447        0.21833241909225
C           -1.56773098686620       -1.09899714884271        0.16004093957983
C           -0.24511881952675       -0.73487657457064        0.06299869181555
H            1.04674129341630       -2.34948705779579       -0.03259656030265
H            1.16718584294551        2.40360451307024       -0.03936177154189
H           -2.02449982783285        2.06908220807075        0.19557471453572
H           -2.00100486762456       -2.07952102926820        0.19117909170109
