16
 energy: -27.344558236940 gnorm: 0.000094229586 xtb: 6.7.0 (08769fc)
O            2.52987526013653        2.91034626078666       -0.22720423959805
C            1.92515059116893        2.03503183930121        0.32397373681993
C            2.57716583082542        0.86394525382469        1.06423411769426
O            1.88790218436688        0.01941586840314        1.58867507417487
C            4.05966924148690        0.87600815984020        1.06893588760199
C            5.01602364400420        1.95411848870662        1.61374121638740
N            5.96077481207522        0.92523039814847        1.05487349629344
C            5.03098139677966        0.87443122398385       -0.12688780290266
C            5.06092682543455       -0.10571157913424        1.68671093892527
H            0.82105739646642        1.99061055564285        0.34962398687014
H            5.06458202396084        2.06862241119970        2.69515881217576
H            5.04075355544501        2.91480209980888        1.10447230863051
H            5.09405009130841       -0.04307730710339       -0.70922598010870
H            5.05698681164055        1.75766947838586       -0.76102075834214
H            5.12439041983447       -0.15076554265100        2.77196603516033
H            5.13744991506600       -1.09739760914350        1.24573317021767
