13
 energy: -28.246785235442 gnorm: 0.000144475063 xtb: 6.7.0 (08769fc)
N            1.20315893736369        0.10814416308287       -0.12682907205300
C            2.52261095444697        0.01952108156947       -0.21811527357155
N            3.29840910346771        1.05381693463610       -0.39325167268255
C            4.67741680170551        1.00268072810592       -0.49364175350883
C            5.54704828262884       -0.13910857153650       -0.43311108922999
O            5.30652698031272       -1.33107761588943       -0.28158070509481
O            6.79118806708870        0.39634531922647       -0.58843134392345
N            6.64589393850037        1.79394889915085       -0.73307390998312
N            5.43101283598979        2.09363388577918       -0.67338650686543
H            0.64705046486474       -0.71846283633892        0.00791269245258
H            0.73611177934940        1.00023699665148       -0.19076715404719
H            3.00061930045411       -0.95084832520613       -0.14635429804621
H            2.91267255382746        1.99302934076863       -0.46865991344646
