14
 energy: -26.044122389780 gnorm: 0.000032688924 xtb: 6.7.0 (08769fc)
C            1.01116520418573       -0.05802570204118       -0.04641312945886
N            2.45075860919027       -0.00394360720877       -0.04466822168862
C            3.32010503182561       -1.08573427916049       -0.04292611264590
C            4.62614665774394       -0.69002166708210       -0.04129141548326
C            4.58494127389474        0.72572438629610       -0.04200736694625
C            3.22082084496465        1.08741051416561       -0.04407109240236
O            3.10588290559404        2.40232153237137       -0.04487440596686
N            4.48997827739222        2.85878858829947       -0.04316394416721
N            5.26079192844385        1.89322704681002       -0.04164490697041
H            0.69884217746493       -1.09984346634234       -0.04812534372766
H            0.61559669162820        0.44054821628063       -0.93339106366945
H            0.61343539580359        0.43825464175182        0.84090500314874
H            2.91809251113232       -2.07996890432626       -0.04302518871077
H            5.49248249073593       -1.31805729981388       -0.03980281131113
