18
 energy: -24.485455867793 gnorm: 0.000042871394 xtb: 6.7.0 (08769fc)
C            1.83940786998408        2.00064706381681        0.69201425520605
C            3.08893138673613        2.79774009595363        0.54097846916924
C            3.05200679584538        4.11200030917571       -1.08823735165642
C            4.49424235523998        3.90226138689322       -1.03896625832928
C            4.29598768828824        2.46287534710079       -0.45240140747357
C            4.43160222198790        2.53874812131656        0.99158817832883
C            5.08777801472533        3.84444512971524        1.37417355510414
C            4.40678589366873        4.66785117795714        0.29946952153083
N            2.93999889695485        4.29741072517582        0.29616814648059
H            2.07220966812218        0.93940904777654        0.63698903884379
H            1.11302895933626        2.24805363677511       -0.08000483675980
H            1.39196974722151        2.21267109286575        1.66251864998330
H            2.27219480951973        3.79194573183423       -1.75748215335069
H            5.21635944343445        4.06161851043284       -1.82757859626439
H            4.26775887972800        1.60412844664904       -1.09491638256449
H            6.17102010298871        3.82880553353723        1.26061972500136
H            4.81682686762139        4.16521376461365        2.37892047490446
H            4.54705039859718        5.74415487841071        0.26844697184601
