17
 energy: -30.700458960035 gnorm: 0.000025264495 xtb: 6.7.0 (08769fc)
N            2.25210330498606        0.35676340541058       -1.16803670135762
C            2.46877965578200        0.04025111958423        0.08374662976710
N            2.06633587564750       -1.09905102447154        0.60596790024730
C            3.18072110278626        1.02729582941053        0.93895549603487
C            4.70803278733870        0.90472340472991        0.71309188740629
O            5.19990029025355       -0.31557741163399        1.19980997124310
C            5.10393564716922        1.00692549508953       -0.82112617321354
O            4.44148041723257        1.79527450268404       -1.52243044435156
O            6.01363428538986        0.23481199312179       -1.14515246573988
H            1.86761240138389       -0.31632575540620       -1.81635842920123
H            2.82853344411043        1.13259812460541       -1.54271149796493
H            1.65838488134571       -1.82366397139400        0.03284853727833
H            2.29931195253347       -1.32468948492500        1.56061533180027
H            2.97291923684703        0.85917400710968        1.99562742319494
H            2.89662663697507        2.03997382185415        0.65460098308359
H            5.19196648245185        1.74388422417802        1.23788160282065
H            5.80893159776685       -0.60303827994714        0.48213994895232
