12
 energy: -24.941155871565 gnorm: 0.000155061157 xtb: 6.7.0 (08769fc)
O            2.07486641155337       -0.66661485437792       -0.11389705589507
N            2.12561091401739        0.68783500049578       -0.11729448736645
C            1.03850346124725        1.38544610915272       -0.03299849929968
C           -0.22188231230759        0.76085471055278        0.06436028987676
C           -1.55106448084083        1.05199178812944        0.16776184425464
N           -2.30953084408697       -0.09379774507601        0.22582457512341
C           -1.53042067822704       -1.13468775782913        0.16493775353346
C           -0.15809233296006       -0.72554664140034        0.05836873849644
N            0.94832818143207       -1.37369877027386       -0.02732831795938
H            1.17497511146174        2.45708776311713       -0.04355296298774
H           -2.03406669267528        2.00955751124191        0.20592131112000
H           -1.90568673861405       -2.13870711373249        0.19360681110359
