14
 energy: -26.033191091437 gnorm: 0.000052352075 xtb: 6.7.0 (08769fc)
N            1.03292397989324       -0.00969431521123        0.04367103485916
C            2.29546085704290       -0.03064818243627       -0.04625436234894
N            3.10876530059306        1.10966225645723       -0.05461568848389
N            4.41944222734462        1.14998488825035       -0.14380826586854
C            5.07440808308813        0.03652017630613       -0.23649935918453
C            4.41690243488654       -1.22126505484537       -0.24472961395108
C            3.05589581824337       -1.27203741388271       -0.15267121675852
C            2.33654509588245       -2.55026068774005       -0.15767944354727
O            2.86709798451140       -3.63408973841172       -0.24178558974242
H            0.62068718693850        0.91616089203284        0.11246446106653
H            2.66369124074164        2.02076508111337        0.01546840592571
H            6.14643206097188        0.12178414611601       -0.30714424743378
H            4.97917842063632       -2.14009103877898       -0.32330956020457
H            1.24397930922594       -2.43668100896961       -0.07638655432787
