15
 energy: -25.636302159086 gnorm: 0.000098119443 xtb: 6.7.0 (08769fc)
N            0.49329590516193        0.48789707759885       -0.14711904613082
C            1.04916847756610       -0.45959839107510        0.80503628299022
C            2.22864732465354       -1.18479377572606        0.12961053513288
O            2.22195911691522       -2.52464946030714        0.62576343003021
C            1.02323823135519       -2.69854396183565       -0.12228990138651
C            1.39456801776533       -1.58459446342364       -1.10480407950797
C            0.10015289575691       -0.70962566636045       -0.82393884864525
N           -1.00513093749296       -1.32097092053118       -0.50721851681352
C           -0.05186241070692       -1.76102627029940        0.51196194631135
H            1.19646468056594        1.03671759450018       -0.63156409667977
H            1.09942395347168       -0.11883639780700        1.83061225181708
H            3.20432775082777       -0.70827392526314        0.11455249864068
H            0.74818189949025       -3.71821436071130       -0.35991275805305
H            1.79167492410425       -1.73452060293997       -2.09649863402754
H           -0.59338982943424       -1.99635647581900        1.41692893632200
