17
 energy: -27.166389360161 gnorm: 0.000047647166 xtb: 6.7.0 (08769fc)
C            1.02723827364374       -0.04837617498407        0.08975678826885
C            2.54077893510028        0.16639009950728        0.00315761256682
C            3.01383910012116        1.02807101093340        1.12727116122671
C            3.68591418069053        0.65888966402703        2.22648477881911
C            3.97230449057366        1.78246882233392        3.17030671806267
C            3.34636694585069        2.98203580836935        2.49254270294748
O            3.31247028598993        4.11479117246757        2.89110489166873
C            2.74403437373447        2.47251328691266        1.16521203778220
O            2.18255443726295        3.16253707088049        0.34581836487765
H            0.69010551569931       -0.66640008290930       -0.73832785641136
H            0.50915135327436        0.90672782657694        0.04266173792681
H            0.76533363667947       -0.54170797445868        1.02343678796400
H            2.77373366407836        0.66350788539334       -0.94139891011258
H            3.05618634504768       -0.79509873507114        0.03381320247890
H            4.01011465344041       -0.34618049883412        2.44337616725224
H            5.04398542115714        1.94046957553058        3.32007843380568
H            3.53388838765581        1.62146124332472        4.15900538087607
