17
 energy: -27.164027502243 gnorm: 0.000048682595 xtb: 6.7.0 (08769fc)
C            0.92510072591178        0.03007581861981       -0.12569440000268
C            2.44611495281445        0.00120046122040        0.06999017067824
C            2.79868309180616        0.07004445258572        1.56137155521553
C            3.06415472080178       -1.20113158993895       -0.58584394571736
C            3.93832719028136       -0.90182768558297       -1.55019872132073
C            4.06262221055158        0.54587334973478       -1.71477221221478
O            4.75754729346034        1.17023874144085       -2.48232214954063
C            3.09803234000658        1.16097009607930       -0.67823013138851
O            2.90776432048733        2.33407239967343       -0.50547209137440
H            0.46560722220458       -0.80368236102359        0.39992949863743
H            0.67439352228617       -0.03818517718631       -1.18260202189692
H            0.52394695899280        0.96123431050365        0.26747810743592
H            2.34765259121397       -0.76642537456989        2.09003030938045
H            2.42343912314158        0.99960567117192        1.98289644546694
H            3.87748137583906        0.03474516421242        1.70106427612186
H            2.79469597201723       -2.19654186636448       -0.27120588222284
H            4.49866638818324       -1.59718641057609       -2.15061880725750
