18
 energy: -28.469054273813 gnorm: 0.000061265893 xtb: 6.7.0 (08769fc)
C            1.12527732563319        0.17457253872318       -0.02726829007768
C            2.60607854543942       -0.16544750095762        0.07856600430847
C            3.03741603264787       -1.21139327276830       -0.96190559122742
N            2.49006504616562       -2.52355275584026       -0.67175789938292
C            3.45113322557455       -3.55577018338736       -0.99545276319890
C            4.80102838375104       -2.89528418658321       -1.01532501339982
O            5.88369954218750       -3.42335028860491       -1.05401609968481
C            4.53569749635189       -1.38765125924766       -0.99235789536320
O            5.37506879834106       -0.52265762671670       -0.99824221061930
H            0.86676500249559        0.93219127076353        0.70826684825670
H            0.51813892578645       -0.70691887827347        0.16110829429444
H            0.88751056005308        0.56218382361404       -1.01589343816878
H            2.82408647699210       -0.56436025725299        1.07015631208216
H            3.21285166538880        0.72926927787551       -0.07421801096836
H            2.74869199481237       -0.84366440488150       -1.96332950679872
H            1.58072078773739       -2.67880135280886       -1.08511136069657
H            3.29477638483297       -4.01495109913085       -1.98427259728911
H            3.41738380580910       -4.35910384452258       -0.25275678206616
