17
 energy: -28.657537392833 gnorm: 0.000025448866 xtb: 6.7.0 (08769fc)
O            0.96704409858229        0.67312302059744        0.18682573298179
N            2.31313419220848        0.53911710743198        0.13377178361914
C            2.95628330261917       -0.04988403266479        1.05699485109359
C            2.43131295216036       -0.67664646893580        2.30406803486946
C            1.56359459998439       -1.88768675733611        2.24932832502240
N            1.00458264332076       -0.59537320817538        2.56911884858367
C            4.42742596620233       -0.12356180896689        0.85243505799823
C            5.17257482254114       -1.36712542739889        1.10739656937822
O            5.25447816999721       -0.27154447615872        1.97190001821307
H            3.12495269651721       -0.59962516166403        3.13892262246516
H            1.66718197736665       -2.63339257849607        3.02768567914432
H            1.27583084034200       -2.27830379817043        1.28171288957029
H            0.76232312634775       -0.45932254445681        3.54486659100744
H            0.61237873586011        0.28737573247103        1.02602220277562
H            4.79258621063559        0.54553621452109        0.07868179586494
H            6.06211631419739       -1.57701333335030        0.52556004364790
H            4.64617935111732       -2.23287247924734        1.49306895376478
