16
 energy: -26.962653654156 gnorm: 0.000065529380 xtb: 6.7.0 (08769fc)
C            1.06281113529057        0.05458173982512       -0.36028655631933
C            2.44938150130910       -0.40854222668591        0.02093357201482
N            3.03745381814840       -0.17302567532880        1.19475883176991
O            2.40303710366793        0.49228308308592        2.08330105888048
C            3.18797633967615       -1.12572218537405       -0.87899507863988
C            3.83046772637560       -1.76769667823901       -1.70514747139350
C            4.59477323049425       -2.49020664058591       -2.58840541803697
N            5.82303600921911       -2.89653783438033       -2.23678442442281
N            4.12798648985475       -2.79757059048448       -3.80762084734605
H            0.65817434402224        0.60769707388440        0.48743702010198
H            0.41346674944507       -0.79358011640558       -0.57696678389800
H            1.09488449387983        0.70782732327132       -1.23214057911487
H            6.17803612131682       -2.66909151264642       -1.32487743682675
H            6.39653732765857       -3.42718700459162       -2.86981965178851
H            3.20927650146093       -2.49905134809431       -4.08196344726852
H            4.68496110818069       -3.32714740725047       -4.45603278771211
