16
 energy: -28.998202642748 gnorm: 0.000061078745 xtb: 6.7.0 (08769fc)
N            1.37157516935201        0.37181463140676        0.12969073228690
C            2.72090286290286        0.19834275684110        0.10883312757883
N            3.31768476116702       -0.94449451482594        0.35740586216304
O            4.67180388474136       -0.71835825240359        0.33911941444926
C            4.89449545797410        0.58774038523637        0.05805710361516
C            6.28217915335275        1.13221228414998       -0.04077863561439
N            6.23121907039764        2.56792878865680        0.22666691449965
C            3.70053357106992        1.22598644738356       -0.09816024059866
O            3.45429457844990        2.52706897572945       -0.39411194867943
H            0.82368498149312       -0.46947607915755        0.05380104376937
H            1.03311294953346        1.17200837167436       -0.38022250114681
H            6.65744048127568        0.99078187646950       -1.06136468440102
H            6.93740258086820        0.56503509674199        0.63808550609812
H            4.31913507590161        2.97555740892333       -0.40670170269252
H            7.12375692232156        2.99687958678413        0.00818749953936
H            6.04679849919879        2.73034223638972        1.21257250913313
