14
 energy: -27.631986726283 gnorm: 0.000131586978 xtb: 6.7.0 (08769fc)
N            1.09223142878528       -0.18227352566087        0.11797051589694
C            2.40866476262808       -0.01039390381286       -0.03443147472545
N            3.08132031826909       -0.67661999406407       -0.97906476603143
C            3.08237843878216        0.88202410541911        0.81278853711727
N            2.54282635546336        1.60122571199554        1.78478184209851
N            3.46451186141239        2.30783186047348        2.35139755931992
C            4.65799289241975        2.03784523532274        1.72108314069252
N            5.82543626831398        2.49613070264718        1.93542731971981
O            4.44347367968650        1.11767075541797        0.71961909334897
H            0.57692363727157       -0.81340086061527       -0.47088577583482
H            0.62302085428494        0.33735927511610        0.84021839799154
H            2.61502634195054       -1.32003502360294       -1.59525094721437
H            4.07173921516439       -0.52753285304753       -1.07098276555719
H            5.82479394556798        3.16136851441142        2.70175932317776
