15
 energy: -25.603479779282 gnorm: 0.000079419562 xtb: 6.7.0 (08769fc)
O            1.23279279940552       -0.35166095193661        0.33428313850090
N            2.53933440324810       -0.74561283698516       -0.00502172458238
C            2.96712761577449       -0.31593136345617       -1.13145725037527
C            4.35481736346473       -0.33327357594839       -1.51051716845664
C            4.40787120444324        0.25038408840100       -2.75873422262348
N            4.50996144497574        1.69345797930307       -2.78520009969943
C            3.02813724355709        1.62778055288322       -2.97523010430534
C            3.03342192247909        0.22401146225056       -3.44734488576853
C            2.28043674996852        0.49418632810645       -2.18431538716237
H            1.11281426208601       -0.70814560717784        1.22627412075250
H            5.15733405106933       -0.41305427744905       -0.80349903535369
H            4.92697545215708        2.10434150881567       -3.61821385363899
H            2.48445602742613        2.49190317727347       -3.32717908173043
H            2.70063517946885       -0.25764172654395       -4.34779799442648
H            1.20280428047609        0.58807524246373       -2.15849645113039
