15
 energy: -27.336026142208 gnorm: 0.000061658032 xtb: 6.7.0 (08769fc)
N            0.97385710325337       -0.13032376950437        0.39506153275178
C            2.31001453481841       -0.06810740158691        0.47491249479720
N            3.09032889909907       -1.06579513774830        0.12990645220446
C            4.46103261638352       -1.01697439646600        0.20628619156241
C            5.29578473346714        0.05334285147790        0.64542564005300
O            4.93247719252585        1.18845934762384        1.05851132068779
C            6.60462035981600       -0.51939234512293        0.48407555955705
N            6.56233795414211       -1.74959208532092        0.01752899559957
N            5.27601940724636       -2.06012211631130       -0.15385725448580
H            0.41925829596972        0.65964926216500        0.66768225135335
H            0.51011775852114       -0.95867192327123        0.05959742360681
H            2.79956742286804        0.82873124362312        0.83562157385764
H            2.67382889609755       -1.92921949659792       -0.21497635278665
H            7.54790266104018       -0.05513360239324        0.69888385043640
H            5.02066216475153       -2.96737043056673       -0.50656967919501
