13
 energy: -25.105846884973 gnorm: 0.000042382270 xtb: 6.7.0 (08769fc)
O            0.90180397252238       -0.15570198251030        0.05191797332387
C            2.10543115060112       -0.07126330269398        0.04367993295669
C            3.08955017530670       -1.21798303032933        0.03676802061040
C            4.35086482757700       -0.75870531355233        0.02810727390790
C            4.28053703335718        0.69502994751774        0.02870711833196
C            2.96987763503815        1.12981419335049        0.03782523216063
C            3.02923189878574        2.53990798669652        0.03753799892312
C            4.36922442603784        2.83470591085901        0.02830719277098
O            5.13092412939672        1.71636844425892        0.02297183658990
H            2.76785253459895       -2.24244922101319        0.03890564800961
H            5.26015186961699       -1.33194581666912        0.02182674720206
H            2.21826205610120        3.23862705986687        0.04319887618639
H            4.88639829106001        3.77377512421870        0.02483614902649
