15
 energy: -28.016504028802 gnorm: 0.000073131372 xtb: 6.7.0 (08769fc)
O            6.78067060515609       -1.30788740025608        0.70495858109622
C            5.58937222327563       -1.20298261288174        0.65768637268484
C            4.77460944741361       -0.04085337444734        1.17631394764925
O            4.13387722642978       -0.01607161180031        2.19169889769996
C            4.85553985329041        1.13205410935795        0.17704879099571
O            4.38588502339665        1.04806595284046       -0.93256467732585
C            5.57949282300100        2.28047808882980        0.72916300260144
C            5.19433061583348        3.66146466706206        0.22154508454205
C            6.47395574008920        3.06568034175677       -0.21783199756936
H            4.94541941774858       -1.93880325001576        0.13287955784887
H            5.88926458679139        2.18386422995045        1.76088837662967
H            5.19977895784285        4.45995813748626        0.94716043435766
H            4.38027678879007        3.69875682686417       -0.48694668479124
H            7.40206775607855        3.43475918811519        0.19027185523126
H            6.54166893486283        2.69373670713818       -1.22939154165041
