16
 energy: -27.434178010708 gnorm: 0.000046927525 xtb: 6.7.0 (08769fc)
O            2.76486918262145        1.31606100397788        1.10986496915835
C            2.30917660678162        0.20061432439561        1.13899719418019
C            3.07360924491766       -1.09468213077872        1.01141339666069
O            2.43037355072892       -2.15115508646687        1.06720290061675
C            4.48379479619976       -1.02001172296790        0.83533867820396
C            5.30522785103965       -2.11047962767310        0.70546662900890
N            6.58103604375798       -1.76962320976848        0.55269246926480
C            6.76419484736935       -0.33049501735004        0.56342254377958
C            5.33927831225918        0.22609400149839        0.75728480124310
H            1.22428842270908        0.01895743491817        1.27024130892712
H            4.99148502272717       -3.13959834774256        0.72047318741988
H            7.34579674154679       -2.41260855950223        0.44016160667548
H            7.21107800714776       -0.00244977327434       -0.37966706964287
H            7.43444873842632       -0.04395282936049        1.37909661960152
H            5.02995520543685        0.86287998415967       -0.07239955217658
H            5.25019742633048        0.82088955593502        1.66713031707912
