17
 energy: -26.301203473122 gnorm: 0.000068707652 xtb: 6.7.0 (08769fc)
C            1.02674259527684       -0.01375888012411        0.07050251015776
N            2.45838977514868       -0.03752156192674       -0.14881279539722
C            3.04027487314125       -1.31798536026878        0.19896418085397
C            2.84102273981063        0.39229097265628       -1.46727313188861
C            2.54899172601355        1.83341511348459       -1.78937551920684
O            1.99847720396289        2.63862912363490       -1.07486317721325
C            3.00578976133021        2.24130042531124       -3.18234006315095
O            3.27530024364052        1.47711708843013       -4.07060238970004
H            0.82613978797299       -0.29023262782387        1.10379744335150
H            0.48925343870507       -0.70986369917999       -0.59224261000454
H            0.65036873319315        0.99326110679756       -0.09398102272829
H            2.79602723594516       -1.54206648082574        1.23573656648125
H            4.12385567533804       -1.26396703794378        0.10475724847834
H            2.66953767663247       -2.13863719374825       -0.43362507783918
H            2.35594617696648       -0.19190569769930       -2.27583689626221
H            3.92001625485094        0.24930143362136       -1.59593186441192
H            3.06867610207116        3.33785327560451       -3.30504340151978
