15
 energy: -25.342739583185 gnorm: 0.000102873825 xtb: 6.7.0 (08769fc)
N            0.99875049730781        1.69632655636087       -0.80114865831334
C            2.16032723796058        1.55589631231634       -0.18466297725412
N            3.21488717433946        1.00673260614756       -0.71678708283387
C            4.59359449629021        1.20586453408376       -0.20758497089213
C            5.19273035721754        2.34122057945834       -0.95960368141479
C            4.76494163122171        3.61736753820195       -0.66168789675471
N            4.35807486707283        4.66456057172514       -0.37062854053889
C            5.94970417349943        2.11181814642397       -2.08818207136663
N            6.59342207721214        1.89737830317129       -3.02907671435556
H            0.22861819205645        2.15572232858566       -0.34500990348669
H            0.89117644517018        1.43587330015925       -1.77008039814703
H            2.23651291249304        1.90193527587182        0.83841519534020
H            3.17808203680983        0.74488770803075       -1.69867801336549
H            5.14582097517384        0.27993845209154       -0.37873356588608
H            4.52050692617411        1.40549778737143        0.86374927926876
