11
 energy: -22.730969059018 gnorm: 0.000039974220 xtb: 6.7.0 (08769fc)
C            1.06263869444914       -0.01821654746407        0.03232585879258
C            2.55413137644423       -0.11665424096907       -0.02422369419157
O            3.27382932791675       -0.59896160299264        0.80609766092814
C            3.08645465669793        0.56646100335398       -1.29675572205165
O            3.18309939650725        0.04006811591809       -2.37101930390070
C            3.44066207684453        2.00836942105354       -0.98690659868810
O            2.66005847111110        2.84319672783474       -0.62857362870711
H            0.68952449248684       -0.49223075972776        0.93712959790803
H            0.63196964693134       -0.49329611735387       -0.84843311113642
H            0.77732056974635        1.03478522618848        0.01623186675811
H            4.52813129086452        2.19976877415857       -1.06603292571135
