15
 energy: -23.870442846621 gnorm: 0.000044847980 xtb: 6.7.0 (08769fc)
N            0.97384958307818       -1.36045966534627       -0.01851753073243
C            2.12651170283759       -0.68826202912777       -0.10882515691243
C            2.16051222698024        0.69238848586260       -0.11640865925156
C            0.98102848014693        1.43524056139553       -0.02924124527607
C           -0.21730626811173        0.76357325541290        0.06471004084420
C           -1.58426870227226        1.08878644694804        0.16827849750037
N           -2.33475865119107        0.00109481404922        0.22984966694482
C           -1.52655048597687       -1.08825239381492        0.17192589793187
C           -0.21249971354350       -0.70339693454710        0.06968712097100
H            0.97211427197591       -2.37334560089169       -0.01465266693211
H            3.02983044692540       -1.27482556956840       -0.17576926672430
H            3.11358615304235        1.19015034138521       -0.19103797187171
H            1.01479672290076        2.51526089082748       -0.03575057384358
H           -2.02629349466188        2.06784519172750        0.19857285489978
H           -1.94488227213006       -2.07695779431235        0.20768899245214
