20
 energy: -29.499812718989 gnorm: 0.000034441616 xtb: 6.7.0 (08769fc)
C            0.92351814523170       -0.40839854956390       -0.12181587023480
C            2.41279980362072       -0.14665785174871       -0.03576204567202
C            3.03898154376467        0.91340258623874       -0.91395208616235
C            3.31796499392095       -0.51960538814001       -1.20651665734830
C            2.75025153457947       -1.23115632084308       -2.41239166870324
N            2.32593225696458       -2.57573735193567       -2.03778354824103
C            3.07066651638813       -0.35038950964400        1.28931033064853
O            2.36494652732437       -1.02307815057463        2.21689914570149
O            4.18713326000864        0.02970963941891        1.54492601411835
H            0.52639126569797        0.00949354491923       -1.04221102792275
H            0.39723295071321        0.07119873359262        0.70474046225650
H            0.71262300812141       -1.47786421825314       -0.13549816364226
H            3.83244518186271        1.50532935266850       -0.48260884847349
H            2.37917376544208        1.45605640979782       -1.57370824686688
H            4.29915403217253       -0.87859543881488       -0.91366854795913
H            3.51768597279228       -1.22090616539748       -3.20621542253351
H            1.87251369024574       -0.70339682728192       -2.79327771446686
H            3.11511220246251       -3.09890146898024       -1.67022779979814
H            1.98074655798698       -3.07364198997943       -2.85162773090079
H            1.50813679069951       -1.32071103547878        1.87625942620100
