13
 energy: -26.667487998550 gnorm: 0.000033326017 xtb: 6.7.0 (08769fc)
N            1.28602861304948        0.05667643134933        0.33555779669441
C            2.49443779574313        0.05251671417065       -0.00551996440615
N            3.33494235078340        1.10714321514472       -0.30395801343962
C            4.58776702571990        0.64766712129031       -0.63200444061497
C            5.65242309335777        1.59374549899304       -0.98807428827469
O            5.50478120980772        2.78975289320507       -1.01677320429011
C            4.65372362489677       -0.71034850789772       -0.57242598364189
C            3.34301055189962       -1.21000582703888       -0.17257044804273
O            2.97635251840574       -2.34891250589526       -0.00297339394257
H            0.84446330110864        0.97114659908175        0.40747180008182
H            3.09942673940021        2.08881880695207       -0.29435026606460
H            6.61451369505764        1.11256460151396       -1.23144163825606
H            5.50553948076997       -1.32783504086904       -0.77777795580283
