12
 energy: -24.987750239986 gnorm: 0.000067374658 xtb: 6.7.0 (08769fc)
O            0.94225619717980        1.41015933637865        0.00034651466665
N            2.06933010169675        0.65822932873507       -0.00048182055397
C            1.97253127014288       -0.63152749194292       -0.00141479524010
N            0.85785831326618       -1.39817928448659       -0.00170101674149
C           -0.25098172995553       -0.72463928649959       -0.00093614053866
N           -1.52236487606226       -1.14207675381309       -0.00092902650309
C           -2.25914449262503       -0.04239482426697        0.00006220725910
C           -1.52840774052103        1.17701894585949        0.00077470294840
C           -0.22230602594657        0.78627466680268        0.00016889995621
H            2.91548208795895       -1.15850427033109       -0.00199325912401
H           -3.33211216950502       -0.12607771794588        0.00026645441075
H           -1.93547093562914        2.16681735151024        0.00159727946021
