16
 energy: -27.343352058946 gnorm: 0.000062067161 xtb: 6.7.0 (08769fc)
O            2.79579067155831        0.09910608888297       -1.10617273121347
C            2.31934478372780        0.36480559819701       -0.03528706199754
C            3.03834159857754        1.11967511882993        1.06844372042087
O            2.43094802196959        1.52337330486558        2.03610030587730
C            4.51627208355264        1.27497729907187        0.86257952100785
N            5.11914944984395        2.19321677558614        1.78419817667904
C            6.53059584336156        1.96747277114852        2.04599291513224
C            7.03266378124375        2.94475096685941        2.99381512120795
C            7.42369804720400        3.73845616352207        3.79924978986085
H            1.28818253454339        0.08155675384933        0.24336670919085
H            4.68807525562899        1.60303556955759       -0.17136951086845
H            4.93147488981169        0.24963515017538        0.93211094560235
H            4.58175019842030        2.25470569762193        2.64419831509824
H            7.07222622596862        2.07685175832478        1.09833657901313
H            6.73515176465317        0.95520461092268        2.44460766595040
H            7.78206484992904        4.43900637258798        4.49329953904386
