14
 energy: -24.443328486240 gnorm: 0.000061360342 xtb: 6.7.0 (08769fc)
O            0.92376092877015       -1.34365045741382       -0.00071600256848
N            2.08648378465669       -0.67523055970742       -0.03134638636496
C            2.08971498970189        0.62237460616422       -0.04556163309333
C            0.93833429728543        1.44844797558762       -0.03127190562837
C           -0.26858327006405        0.81135159894267        0.00019793913164
C           -1.62959040789036        1.16909755688768        0.02420452046865
C           -2.36327083971084        0.00594279406816        0.05167305665711
C           -1.51479270137375       -1.13757442161926        0.04663272171399
C           -0.23355626845788       -0.67633008287043        0.01547251942919
H            3.07981881861354        1.05109489366632       -0.06974076367494
H            1.03786409802942        2.52279891584631       -0.04483087256655
H           -2.00985633904377        2.17207337599513        0.02127144962847
H           -3.43722025970454       -0.05154059455271        0.07429636125698
H           -1.83386683081194       -2.16058560099444        0.06418899561060
