13
 energy: -28.973212635129 gnorm: 0.000136750819 xtb: 6.7.0 (08769fc)
O            1.92297681681229       -0.25394258178435        1.48273425192669
C            2.43264767450120       -0.08369511371565        0.41001742298101
C            3.06406165306320        1.20592590865414       -0.07032867253054
C            3.85417763825005        0.98973538586015       -1.36108769316753
O            4.71640201150784       -0.14580987392138       -1.25838393574323
C            4.16920841140596       -1.30353699341450       -0.89736589737244
O            4.79930285416453       -2.31001165813235       -0.75095923789207
C            2.65110621818855       -1.19581095348907       -0.61685440415871
O            1.80685293520786       -1.84958002572365       -1.16048763438292
H            3.71001991368752        1.57935091578534        0.73049627864940
H            2.27893364854821        1.95012232827034       -0.22532077676583
H            4.52238927982159        1.82948178745277       -1.56114113095876
H            3.18025094484119        0.85776087415822       -2.21635857058507
