18
 energy: -28.424851777174 gnorm: 0.000031150008 xtb: 6.7.0 (08769fc)
C            1.14351513085745       -0.25468458071132        0.23976261420308
N            2.56276875431658       -0.18068127423718        0.00392575798858
C            3.08318209750942        0.78039701286805       -0.93349419467004
C            3.14401672657758       -0.67453692730113       -1.21840924052478
C            2.31152930829722       -1.28913999525213       -2.32308581035272
C            3.11808622072450       -1.60023343368172       -3.54913455596288
O            4.25359994815317       -1.24498898648442       -3.75784928790264
C            2.38134989066853       -2.45052546950726       -4.58031497970421
O            1.40240795231232       -3.10465951067652       -4.34646413962135
H            0.91263134929967        0.39194047617681        1.08675280334552
H            0.88423690026851       -1.27978729398995        0.50457697991362
H            0.52855714853132        0.06025158128820       -0.61388701752619
H            3.97473626935201        1.30725488854099       -0.62388201197615
H            2.38078460103500        1.38023646027059       -1.50577585441573
H            4.09620614914163       -1.17655849910827       -1.07297340073770
H            1.50129984426092       -0.61827664740893       -2.62735200117249
H            1.83787202601861       -2.22173134650320       -1.99552923325730
H            2.84872968267562       -2.41502645428252       -5.58102642762664
