12
 energy: -27.314485665421 gnorm: 0.000116117259 xtb: 6.7.0 (08769fc)
O            0.91584824861300       -0.05994438761781       -0.00634840268028
C            2.12262112969112        0.00795237127987       -0.00600174945630
N            2.91282230648518       -1.10918943006430       -0.00824069223196
C            4.27910432146785       -1.10164211461321       -0.00881429061685
C            5.01610157085997        0.02376012274968       -0.00743597950049
C            4.40729423490782        1.33594500496422       -0.00512592191101
O            5.01531493355223        2.38757617070476       -0.00510967819836
C            2.86583173103731        1.35605135352565       -0.00302415528225
O            2.24610729280061        2.38616933706484        0.00147047738772
H            2.42538573773719       -1.99996350836151       -0.01000852078196
H            4.74206316317951       -2.07806781194268       -0.01058494298196
H            6.09343532966820       -0.02034710768952       -0.00829614374630
