13
 energy: -27.025661718540 gnorm: 0.000095549973 xtb: 6.7.0 (08769fc)
O            1.23343624539760       -0.12355200950829        0.35300064874040
C            2.29123849059299        0.12554889787832       -0.16135431571088
C            3.07993377899832        1.34569306612762        0.09507666908676
C            2.76994598628033        2.36279354162029        0.91962310592320
C            3.82638092334917        3.40859968449524        0.89722578103284
O            3.82802553304689        4.43218657258604        1.52760064900496
C            4.89114183986522        2.93127521964750       -0.07132758428066
C            4.39169430963965        1.59554000327009       -0.57984901104347
O            4.93097166550727        0.86759211672557       -1.36960569258063
H            2.77086176871497       -0.55554157051070       -0.88623227601581
H            1.88471397404510        2.44278245534409        1.52883790593932
H            5.86077738788246        2.83077157366388        0.42203896842431
H            5.03039809668004        3.64105044866033       -0.89017484852034
