16
 energy: -27.093400806283 gnorm: 0.000044460246 xtb: 6.7.0 (08769fc)
C            1.10806701762658       -0.01179328096625       -0.01781771452313
N            2.54268957407921        0.01266046720134        0.08809856482888
C            3.11080752886999        0.32433730773360        1.19395740909964
N            4.49583628289840        0.32351072755290        1.21005270688887
C            5.22140063472444        0.63452360946471        2.31579109077468
C            4.57010217294919        0.96471313128984        3.46985864644500
O            5.19984648165522        1.29176137754243        4.62993914620637
N            3.21369735172239        0.98750127646041        3.53211372495690
C            2.53351071339748        0.69140050867397        2.48017379416800
H            0.86587525760422       -0.30169345527202       -1.04049701384036
H            0.66166664160562        0.96915730007888        0.18127437981930
H            0.65470922107225       -0.73766959712362        0.66681643642006
H            4.94968437975019        0.07534349563902        0.34166779889897
H            6.29708872328968        0.60511754733243        2.22706662337229
H            6.15672047599014        1.25373206764374        4.50924128944054
H            1.45752754276498        0.72435751674864        2.58164311704398
