17
 energy: -25.103345134491 gnorm: 0.000094231683 xtb: 6.7.0 (08769fc)
C            0.51620322302512        0.52360654149600       -0.18560571339171
C            0.94820471256248       -0.54525603208583        0.89786776010555
C            2.10470693715859       -1.22880528328699        0.15297967135665
O            2.12904797167219       -2.59159612592965        0.57504959774633
C            0.85950303233549       -2.68978051089587       -0.07532202294150
C            1.24489396936072       -1.58579724435622       -1.08148203379538
C            0.08467877976968       -0.58402910541188       -1.14372475306738
C           -0.93686506123796       -1.14404520022595       -0.33986066529288
C           -0.09391686451299       -1.77492024651310        0.70969882100063
H            1.36769955954908        1.11487204186548       -0.51937142272753
H           -0.29146673095935        1.17513901035222        0.13554619623693
H            1.15622820184507       -0.20187587068424        1.90914757096790
H            3.06997796193743       -0.73453173354894        0.11253364430183
H            0.53765334273911       -3.69600650520709       -0.32319903450851
H            1.74695496981530       -1.86228115883268       -2.00104815549199
H           -1.90183840915270       -0.70199758114472       -0.16506099517137
H           -0.55857559590728       -2.17011499559054        1.60655153467243
