14
 energy: -26.273513834123 gnorm: 0.000099390422 xtb: 6.7.0 (08769fc)
O            1.51348051875726        1.22939533885231        0.17065884305905
C            2.39742530238067        2.20468106799538       -0.37904539518554
C            3.63745469273912        1.43096364664362        0.11033827688714
C            2.59420967198466        0.30815708859229        0.08032512472852
C            2.88099496404314        0.08458858443147       -1.43680416061435
N            4.28335139163754       -0.16570119510095       -1.68820978410216
C            4.24415171163021        1.07602290059252       -1.29657170082491
O            3.96354385996866        2.12664785931047       -2.15258292501351
C            2.63266674378086        1.80977308236310       -1.84535206038141
H            2.15557002339588        3.23569085787646       -0.14498541825545
H            4.25187817865598        1.70595935319352        0.95206323161956
H            2.54148107379605       -0.55556869285371        0.73094789130122
H            2.26410111711850       -0.51632755991822       -2.08805213114170
H            1.93245075011147        2.00631766802175       -2.64408979207645
