15
 energy: -28.058763730812 gnorm: 0.000058427319 xtb: 6.7.0 (08769fc)
O            1.18327818484627        0.17697705114610        0.62180292130540
C            2.32267574534831        0.14089907930547        0.23807175549086
C            3.16039494896113       -1.07901855502881       -0.04170556141602
O            4.43655309409531       -0.66007852307726       -0.47346982768176
C            4.50169321849775        0.74118710236601       -0.49853489145275
C            5.82712587178286        1.40485698144167       -0.16287008069053
C            5.35327267247112        1.40161675254116       -1.57002466618687
C            3.23096589996344        1.33262590681666       -0.07117370686085
O            2.94530971316054        2.50491024038880        0.02247710775909
H            2.69273277834672       -1.69604489956563       -0.81938834152096
H            3.26052783376477       -1.69226823770094        0.86277407516488
H            6.62497194010890        0.73353288423451        0.11393779800947
H            5.77193295142896        2.32325664622909        0.40239574105396
H            5.82233721176662        0.72814336848853       -2.27021769649255
H            4.96607793545728        2.31769420241465       -1.99061462648135
