14
 energy: -28.019679500969 gnorm: 0.000129878943 xtb: 6.7.0 (08769fc)
N            1.06607557058586        0.04542482049172       -0.00044460348975
C            2.37953430889913       -0.06184809409898        0.05228435133880
N            3.11632759706614       -0.53117513271560       -0.91791831627669
C            4.50418338456858       -0.62425405904261       -0.81146360857101
C            5.39087462785754       -1.08832308813928       -1.73586061990718
O            6.62942795274344       -0.98917659470449       -1.19433592530950
C            6.43091961103026       -0.43680671316939        0.11247694527386
O            7.39168561448901       -0.23680703992621        0.83561555776841
N            5.13896073326786       -0.22372884785667        0.32363795689465
H            0.55503055143174        0.41746513780859        0.78255463198320
H            0.54894929429770       -0.23732150062297       -0.82029481905871
H            2.92399284173207        0.24662708401156        0.93771482046738
H            2.70505198929713       -0.84788008289627       -1.79063226816844
H            5.29683592273354       -1.48319588913940       -2.72637410294503
