14
 energy: -27.647156361027 gnorm: 0.000101594067 xtb: 6.7.0 (08769fc)
N            1.22044984241808       -0.04272531667796        0.13824570416129
C            2.54326666318864       -0.02576842432607        0.15773291192014
N            3.27646874515619       -1.02466933418451        0.55818393110222
C            4.66417608482771       -1.02105766493964        0.58421684687034
N            5.36048075835489       -2.09270006076860        1.01253127250640
C            6.60951533256480       -1.63056921640791        0.85879235080951
O            7.69795878152664       -2.36617707261008        1.16484249538828
N            6.68242263545742       -0.39247863861804        0.38126119699192
N            5.41405142479513        0.00400637932037        0.20275002533661
H            0.70551539875259        0.75947779310450       -0.18247783576659
H            0.70652420304730       -0.85630668796194        0.44211482514201
H            3.07839998806086        0.85582872617445       -0.17260511422178
H            2.86336167108969       -1.89346371446607        0.88625392798974
H            7.37427847076006       -3.21719676763851        1.48767746176991
