14
 energy: -26.385319697328 gnorm: 0.000126480230 xtb: 6.7.0 (08769fc)
O            1.34395213296584       -0.60449515448595       -0.47048879536041
C            2.39166537513172       -0.11531922287633       -0.15120896464794
C            3.42203684442006       -0.61225934309330        0.85795881789996
N            3.98023398177736        0.64368992729475        1.33742539340827
C            4.38870296743791        1.17221869000431        0.04411207054253
C            5.02321697554501       -0.02047722316029       -0.67055401316741
C            4.43415418885338       -1.10828510108714       -0.17433463454185
C            3.07017769971355        1.13800363110611       -0.72224312281629
O            2.67918914706582        1.86351875785196       -1.59386424594891
H            3.07503352197129       -1.30219267761546        1.61877587122810
H            4.77598507484558        0.49345947844053        1.95345569685087
H            4.92558255606943        2.11389408538349        0.06084714704759
H            5.75334072102661        0.06564571330850       -1.45133116572228
H            4.55976881317643       -2.13802156107117       -0.44625005477226
