15
 energy: -27.302958709205 gnorm: 0.000042112024 xtb: 6.7.0 (08769fc)
C            1.03595306997570        0.30141999428952       -0.21196691977581
N            2.36401588268426       -0.24365818856564       -0.10302592830664
C            3.01986896956002       -0.82322354285698       -1.11900800081124
C            2.57813420585946       -1.00095769652752       -2.40143583563240
C            3.44823733082525       -1.65387750099644       -3.34772530437849
N            3.25691087728783       -1.92361144165873       -4.57272672508870
O            4.68269405644644       -2.05229816328507       -2.85791752464823
N            5.03402826299359       -1.83171232516306       -1.56641307035941
N            4.29536733956862       -1.27965641987056       -0.77370110277830
H            0.74056945993174        0.71058017857275        0.74955785702332
H            0.32219171187559       -0.47462973504134       -0.50187536551377
H            1.00556568675659        1.09753415583787       -0.96091722785116
H            2.85237931478197       -0.20369212763546        0.77695618839115
H            1.61016428397084       -0.67741126385132       -2.74398381511212
H            2.34821954748208       -1.62448592324803       -4.91273722515818
