13
 energy: -27.014757736358 gnorm: 0.000080452416 xtb: 6.7.0 (08769fc)
O            2.55356766685977       -0.35515523836190        1.22534378199035
C            2.23076441991521       -0.20691782589719        0.07572303386168
C            3.03993744877267       -0.64479786455198       -1.07408217996890
C            2.70474416194927       -0.49046185768327       -2.36831839714477
C            3.74304961158057       -1.04338905116886       -3.24803395394605
O            3.77055488665577       -1.07586346336840       -4.45247040785077
C            4.83647586441518       -1.59744826227352       -2.30155558650685
O            5.85241120908161       -2.13173697894973       -2.64660560155363
C            4.36226051481333       -1.32843433276536       -0.89015464112801
H            1.28025201160453        0.28037948157295       -0.20580033348029
H            1.80916763329480       -0.03084120392526       -2.74986903288174
H            5.07386355618475       -0.70279864756626       -0.34427777298814
H            4.26747101487253       -2.25628475506122       -0.31925890840288
