12
 energy: -22.191775785093 gnorm: 0.000107235049 xtb: 6.7.0 (08769fc)
N            1.09768905047560       -0.07276752105789       -0.05300077718059
C            2.43377470080578       -0.16984554492139        0.03347776323216
N            3.12422318139081       -1.06155943494869       -0.62168491610979
C            4.50839785474875       -1.24100304093658       -0.59886583894347
C            5.06110995708658       -2.24990075610002       -1.36661178723268
N            5.51202708532784       -3.09745460026602       -2.01262796786123
C            5.32350157526036       -0.43135952264451        0.17208571684447
N            6.00001557473976        0.24926718726956        0.81859697198984
H            0.60776384110434        0.62930222767588        0.46927014928475
H            0.57025024560267       -0.69789151653108       -0.63894489346699
H            2.96326314347675        0.52085505332625        0.67347542947879
H            2.63197378998077       -1.71464253086550       -1.22568985003526
