18
 energy: -24.443978415720 gnorm: 0.000097330915 xtb: 6.7.0 (08769fc)
C            1.54455351812462       -0.39216265115945        0.95505122579967
C            2.74835523591070        0.14074692604517        0.23836087201243
C            4.08931246440941       -0.55452537070175        0.18304104816871
C            3.28579315842306       -0.40144508465818       -1.06432435888718
N            4.06718265763969        0.74104524479171       -1.56298627232651
C            3.12316913983353        1.89745862567769       -1.34379818888353
C            3.03368007172459        1.65082923377266        0.15877095883085
C            4.39786472566493        1.83702012666623        0.49345378127341
C            4.91932925556345        0.64663538596557       -0.22662040463062
H            1.49124599840079       -1.47415106566636        0.84914254061079
H            0.63433202261498        0.04398905996916        0.54433169055952
H            1.59325046473151       -0.14825120299839        2.01621145702419
H            4.40788965177419       -1.42352301343532        0.72932078573184
H            2.81751521269061       -1.10785733936936       -1.72751276010853
H            2.20770588846906        1.71793164559041       -1.90499107615015
H            3.57744425446828        2.84304070453654       -1.62765169403308
H            4.89736532555619        2.78900018648281        0.52245954230153
H            5.98256095400042        0.55673858849083       -0.41575914729332
