14
 energy: -26.401903532658 gnorm: 0.000049901111 xtb: 6.7.0 (08769fc)
N            1.08667777239228        0.03430196662861       -0.05608372253015
C            2.34216286345152        0.05778107497980        0.04480608124506
O            3.08527781429153       -1.11651945702084        0.04922087339893
C            4.42985628312349       -1.07597988440298        0.15652079535436
C            5.07267615786382       -2.39738330682348        0.14610092034073
O            6.26200357616212       -2.58172366539119        0.23152421810343
C            5.12443977748658        0.08702315322483        0.26434162992515
C            4.41186188642392        1.32201489432579        0.26576347152054
C            3.06636570081558        1.30543606646807        0.15992535813154
H            0.68193855514031       -0.89354611908668       -0.13134308973590
H            4.35402547588701       -3.23062541430648        0.05074827147451
H            6.19798199298029        0.05080618176256        0.34649846846622
H            4.95869687587603        2.24808715362294        0.35164044672943
H            2.46109526810553        2.19636735601906        0.15397627757616
