15
 energy: -25.241435390147 gnorm: 0.000065871117 xtb: 6.7.0 (08769fc)
N            0.93446690184946       -0.05483372792221        0.03421740620875
C            2.45688558409045       -0.14914679984049       -0.03711342770098
C            2.92317366118283       -1.18697648756067        0.90820751817637
C            3.40065101057760       -1.11445769313216        2.18428662629891
C            3.58683657404209       -2.47763384707387        2.66636568747700
O            4.01344784926934       -2.84456413372066        3.79890855589229
C            3.15665794010476       -3.25161949360813        1.58476313437077
O            2.75217500240555       -2.48084459660349        0.52247579909814
H            0.55525963375507        0.63446630090021       -0.62585042345527
H            0.66021683834723        0.19088219623994        0.99357074587627
H            0.55252153843547       -0.98615030392268       -0.17578189108428
H            2.87171694785829        0.82242723391633        0.22417992995352
H            2.71079252663890       -0.41076464602661       -1.06525017552089
H            3.63289063446287       -0.22041465103020        2.73184994211682
H            3.11688735698012       -4.31493935061489        1.44721057229283
