15
 energy: -29.633733926824 gnorm: 0.000073914373 xtb: 6.7.0 (08769fc)
N            1.04595061493801       -0.10986123229901       -0.05686856238081
C            2.35657661314566       -0.09306764268550       -0.02693301789324
N            3.11074392224819       -0.62305595612318       -0.93552099281810
C            4.54996485060879       -0.64624349662936       -0.97435768313383
C            4.96785068983613       -1.38942666783660       -2.24897065760302
O            4.10500339231740       -1.81766970181245       -2.98458580197287
C            6.53981846695649       -1.50621274368410       -2.44674143074417
O            7.18266509999194       -0.97166875288181       -1.53204955239265
O            6.90116274504982       -2.10066087213387       -3.46202366871755
H            0.50256149577071        0.31763505939673        0.67655331180647
H            0.55093279626771       -0.55370956589700       -0.81880185971807
H            2.84314152846037        0.39566809026995        0.81171037105511
H            2.72725296678636       -1.10498601109418       -1.76266156261417
H            4.99090908467506       -1.16841241496222       -0.12116909502702
H            4.99147573294736        0.35323190837260       -1.00818979784608
