15
 energy: -29.943376774690 gnorm: 0.000034604410 xtb: 6.7.0 (08769fc)
O            1.04898083780463       -0.09354388560875        0.12728959115144
C            2.24212150853838       -0.05001542908671        0.02560799258649
C            2.98538059687480        0.60777325234933       -1.10911390424164
O            4.36815307450653        0.45345834184792       -0.89879696348513
C            5.16019881472461        1.03108833508171       -1.89872525376551
C            6.62583420039441        0.82190812982894       -1.60300268752544
O            7.07627142552521        0.24556688734524       -0.64951510745542
C            7.55502295916515        1.42812246451884       -2.65934155315779
O            7.17946183535105        2.01557847050245       -3.63374922565539
H            2.92045364868793       -0.49817624315249        0.77192257333819
H            2.70190999858617        1.67250897025029       -1.15054899196991
H            2.66930590053027        0.14569719419692       -2.05891877468423
H            4.98450511153542        2.11769210716805       -1.98211945495476
H            4.94992347864536        0.59368116829071       -2.89015316140871
H            8.62225660913008        1.26615023646755       -2.42752507877224
