15
 energy: -28.056752489849 gnorm: 0.000043126861 xtb: 6.7.0 (08769fc)
O            2.40552926774609       -0.10801262506484       -1.82014923548405
C            2.71973700638085        0.07854686156422       -0.67657548701187
C            2.94153890816385        1.40187868003052        0.01165839527989
C            3.72226744071621        1.10868975820106        1.28897038452174
C            5.23284091955994        0.88909198872095        1.11022221576174
O            5.09817479351374       -0.51455555508878        1.36700253000308
C            3.67830276790200       -0.40777147481411        1.54056061006773
C            2.95738996920330       -1.03971239838754        0.36055200363627
O            2.64036574789569       -2.18851722936208        0.22787308248937
H            1.95668211776806        1.81860492749319        0.24321065484936
H            3.44823648864434        2.10898285269600       -0.64703392652996
H            3.44717608513180        1.75340142387192        2.12055751079676
H            5.87063239342195        1.36559951835946        1.85816186540452
H            5.62489849425790        1.08273542340680        0.10819238448936
H            3.34718759969426       -0.80088215162678        2.50489701172601
