13
 energy: -24.386165412348 gnorm: 0.000093933331 xtb: 6.7.0 (08769fc)
N            0.99236402876758       -1.34028198138367       -0.02657298355583
N            2.11576546023582       -0.67414174686542       -0.11353836008514
C            2.06053129325893        0.64637363399744       -0.10769803619762
N            0.97491217139112        1.40878758635711       -0.02183978315043
C           -0.16440581209694        0.76200981868193        0.06628732380520
C           -1.51203910902280        1.12346529507467        0.17229860961191
N           -2.28478329953724        0.04523911455824        0.23185032898700
C           -1.52843799539678       -1.07260516121900        0.17098195057618
C           -0.19916830033955       -0.73960734144095        0.06698416287653
H            1.09102834014151       -2.35485473484028       -0.03522284494308
H            3.01274595019873        1.14889063098421       -0.18204377728508
H           -1.93053840950081        2.10996893647930        0.20617077002247
H           -1.98663431809958       -2.04189405038356        0.20565263933788
