15
 energy: -25.397471086672 gnorm: 0.000072074554 xtb: 6.7.0 (08769fc)
N            0.67104378598398        0.34270708233818        0.30549525424628
C            0.81641385694356        0.74279254973263        1.58111883193665
C           -0.24741716472346        1.29984921122127        2.27750988584989
N           -0.37374048028615        1.58542647479026        3.57131586306177
C            0.59049009517664        1.69494419479766        4.43377639492671
N            1.90392378897654        1.84372363692869        4.22629399489082
C            2.57430503481080        1.46972785235944        3.19799793914463
C            2.18469891330833        0.60579245512593        2.08919311656443
N            2.98584801597190       -0.13369118555957        1.41337183843390
H            1.45014106598032       -0.14853891933095       -0.10432474887315
H           -0.19368568771313        0.46153800714561       -0.19078271945321
H           -1.18126074381965        1.40589780855325        1.73156913462129
H            0.28715626300391        1.82808289073209        5.46701289974294
H            3.61277167255736        1.79986828948943        3.18093848280948
H            3.94519158382906       -0.12451034832393        1.75147383209770
