16
 energy: -29.015353904767 gnorm: 0.000048518384 xtb: 6.7.0 (08769fc)
C            1.13680519557463       -0.03175403707225       -0.13946356061242
C            2.59912085223485        0.04765191053884        0.13541343644624
N            2.98646932163742        0.48636010834034        1.32207560093012
N            3.43094002766474       -0.33067747462071       -0.79640894344983
C            4.83498816440066       -0.44286581614179       -0.86454895505415
N            5.73036225130356        0.19107484315556       -0.26852531380541
C            5.10812070423021       -1.49575198566271       -2.01292547704852
O            4.02959110293511       -1.79067457107842       -2.59606305699313
O            6.24300380470256       -1.88729211353526       -2.21139100337206
H            0.62306218385855        0.84177830936789        0.25637973009488
H            0.72679744067567       -0.91702589827980        0.34773500499701
H            0.94906582466677       -0.11287764864417       -1.20630184446935
H            2.30184236913987        0.73459599314401        2.01904257232470
H            3.95589983280915        0.44844148444148        1.60276092564827
H            3.16358899152260       -0.92529899373696       -1.67727023717552
H            5.45056193264357        0.92828588978405        0.37808112153924
