18
 energy: -30.405499962152 gnorm: 0.000052159050 xtb: 6.7.0 (08769fc)
N            1.07668926910274        0.20688385298083        0.14287761728307
C            2.44982924432858        0.01843200036327       -0.32596975696993
C            3.26406829416060        1.29665937958815       -0.23291613506631
C            2.86189652688356        2.48178717215744        0.59564774320143
C            2.90991558853573        2.60056257922028       -0.91631799065923
O            3.98593082157599        3.30715760291005       -1.46405807857546
C            1.64441786691842        2.87237395812053       -1.68522763218945
O            1.68280020881192        3.70783975453905       -2.56991237729269
O            0.54161490499843        2.24161915051249       -1.36514348178110
H            0.50513618001769       -0.59837640032179       -0.08591771746034
H            0.67635057875479        1.46109617016904       -0.69378901989311
H            1.05527649683750        0.33617901191643        1.14923817494761
H            2.40908613262172       -0.30627029781624       -1.37059224262104
H            2.97634498094034       -0.75852032022324        0.24568822077377
H            4.33105428819464        1.10758959634067       -0.26761842458517
H            3.63429383074065        3.00343044000584        1.13916622103143
H            1.89140759328780        2.50186232997045        1.06732199768001
H            3.59813719328841        3.87065401956667       -2.15661711782342
