16
 energy: -29.013716260490 gnorm: 0.000144451439 xtb: 6.7.0 (08769fc)
C            1.05926764293642       -0.18145732502445        0.01646825896383
N            2.47606319054803        0.02566338280798        0.18914411640567
C            3.27060758759637       -0.74040368224055        0.96198650352898
N            2.93448243192946       -1.73777887357327        1.68745659496330
C            4.72122138215409       -0.30737160018809        0.89353501113496
O            5.06795637897164        0.47681139498613        0.03947587042742
C            5.74164654814091       -0.82947291457713        1.92376388856772
N            5.40070609110793       -1.96729763963157        2.52841063807112
O            6.77675074577532       -0.21252508595835        2.10502275781235
H            0.65086424956472        0.63686429088836       -0.56922754999979
H            0.55864713182811       -0.20086588035191        0.98799419526979
H            0.85761544915633       -1.12423605026253       -0.50212391466937
H            2.94122227225127        0.72374683687152       -0.37455914022662
H            1.94893553251196       -1.97854291032006        1.65655786743197
H            4.43782174562152       -2.29744973176810        2.40850432530486
H            6.01235161990593       -2.34336421165799        3.23655057701366
