12
 energy: -24.618899107889 gnorm: 0.000085164357 xtb: 6.7.0 (08769fc)
N            0.97134399407821        0.13920505338410        0.03557034173745
C            2.23065259844755        0.14903674480627        0.03769676100147
N            3.04775270502633       -1.01137929763715        0.04055223901997
N            4.36212665587520       -1.00962146056666        0.04268914481504
C            4.97252022651696        0.12972985196534        0.04224630967642
C            4.19597475209886        1.34648168522573        0.03946907879921
N            2.90381660151813        1.34550988578799        0.03732314518344
C            4.89083101244686        2.59090514119189        0.03902859994302
N            5.51491460993310        3.55083661277968        0.03889256587200
H            0.54306774467067       -0.78034414895099        0.03600479956098
H            2.61814390042745       -1.93131841900901        0.04100479931678
H            6.04924519896068        0.12279835102281        0.04400221507422
