18
 energy: -29.978131713764 gnorm: 0.000064529350 xtb: 6.7.0 (08769fc)
N            1.07097935085002        0.03412878685974        0.05048180717340
C            2.36391261523575       -0.05457461953199        0.39831569506262
N            2.94177677813341       -1.17571373404014        0.55140273809246
C            4.33845552948009       -1.21708854064027        0.87790819723715
C            5.04093542094173       -2.21842444629773        0.00855143203460
C            6.54160783397158       -2.30499090392097       -0.02240639331061
O            7.01236777119593       -3.61514415254982       -0.19144203300140
N            4.31674748182675       -3.00786223484243       -0.70747048436088
O            4.71565030235652       -3.92339412589655       -1.50906003113691
H            0.58995386381206        0.91377144587165        0.08340505916578
H            0.52963894042192       -0.81307153732140        0.01511120139859
H            2.87985472289491        0.90989137323562        0.51074124551485
H            3.29542605786168       -2.86704933539590       -0.60776362316619
H            4.44690257534288       -1.53915507557401        1.92424549962324
H            4.84003826941527       -0.23736969425630        0.78385905881822
H            6.96089896968398       -1.92746713862646        0.91566965169397
H            6.90903596099477       -1.65946399076910       -0.84278808722494
H            6.40605755558061       -4.03308207630420       -0.84174093361424
