19
 energy: -24.190108786406 gnorm: 0.000031698017 xtb: 6.7.0 (08769fc)
C            1.40584777931457        2.11187836411520        0.61090001057197
C            2.62132877129103        2.88109746658792        0.18276711326207
C            2.69954806922534        4.38801616076311        0.19914985955154
C            2.71038767718648        3.65702542319912       -1.10713492382609
C            4.22859886262007        3.74725056814869       -1.21090544644797
C            4.77796188712458        2.46675922094528       -0.69551946342921
C            4.03121658183643        2.35521731483175        0.50068911711100
C            4.67908252316107        3.49048131057291        1.28442072480530
C            4.21665062626501        4.54830810162973        0.20029451795442
H            0.49925561759807        2.64386068990382        0.32783523805316
H            1.40637912260815        1.97396346389656        1.69163574546757
H            1.39347460073038        1.12864281387274        0.14134954794963
H            1.96986515852851        5.05205724395655        0.63010107424128
H            2.00435229068874        3.64419627016792       -1.91858173820054
H            4.68967177173884        4.21630521268894       -2.07323455835999
H            5.80805346148491        2.17236086924563       -0.80353787770873
H            5.75847732562707        3.40832327796083        1.38451737571600
H            4.22207173592226        3.69647485683967        2.25169479654596
H            4.63164613704848        5.55347137067365        0.25853888674264
