14
 energy: -27.977741666240 gnorm: 0.000058967111 xtb: 6.7.0 (08769fc)
N            0.99435126586324        0.08339360127726        0.03453722743700
C            2.32274897776070       -0.04138055270668        0.04468344541478
N            3.10400234601922        0.59127140371586       -0.78241538251564
C            4.48136115595503        0.54729559343336       -0.87264820090298
C            5.18582194292275        1.31533827649371       -1.85156093829448
O            4.75096011722789        2.07977438299976       -2.70864509950229
O            6.51217844771859        1.04243659735986       -1.66621949286151
N            6.66573142524420        0.14236166560243       -0.62005811638820
C            5.47711946979421       -0.13919160392472       -0.16547400128641
H            0.42797275102277       -0.42346649031744        0.69061267453855
H            0.54072137650108        0.68788223800272       -0.63154705674865
H            2.77193425250183       -0.69929557148009        0.77450251679384
H            2.70684341803299        1.21924845689606       -1.48215934312663
H            5.38362305343550       -0.82542799735209        0.65359176744264
