10
 energy: -23.769174394883 gnorm: 0.000131640379 xtb: 6.7.0 (08769fc)
O            2.56156578558380       -0.14569092515965       -1.23716744484073
C            2.37813204974058       -0.16986673918507       -0.05584852391207
C            2.97905544851576       -1.16913841607958        0.91358143400773
O            2.39311312807329       -2.04603504385503        1.48160399151537
C            4.48796953312450       -0.86876320564856        1.08142314653176
O            4.91790331992422        0.01867645548682        1.76844268826805
C            5.23070192858082       -1.76828512708722        0.26024685225445
C            5.81396095116356       -2.55380301658869       -0.44020678152451
H            1.78460845010811        0.60109881596380        0.47637940321890
H            6.34101940518535       -3.23147279784680       -1.04910476551904
