19
 energy: -26.133483483934 gnorm: 0.000068238300 xtb: 6.7.0 (08769fc)
C           -1.39932325134767        1.42715756859305       -0.50533973250259
C           -1.60129872958825        0.09351083458956        0.22911435704988
C           -1.02553990848032       -1.11680480434248       -0.53239169617081
C            0.38606413044872       -1.42940882784919       -0.06234728849135
O            1.43740135798640       -1.39713449664268       -0.99002103324283
C            1.42727315632378       -0.39231901151289       -0.01168061452622
C            1.14192984640615        1.04204279887185       -0.42691687172365
C           -0.10247961970259        1.58642480231837        0.30191640848702
C           -0.58799148784467        0.52563069319437        1.27954050390641
H           -2.14963438366170        2.16704410140942       -0.23076127521474
H           -1.31021649887530        1.39060455191880       -1.59232134617316
H           -2.59998340164978       -0.13019529449758        0.60727091012051
H           -1.00541870092064       -0.90462257871682       -1.60344702288459
H           -1.64808970167092       -1.99688969307663       -0.37149226472953
H            0.45839738545325       -2.23674533439497        0.66362482722807
H            2.19811493638423       -0.50395040488157        0.74817996973115
H            0.98234303503491        1.07495726661053       -1.50677111090787
H            2.01487285439904        1.65147376617131       -0.19325665368540
H            0.10538898130529        2.56449406223751        0.73848993372970
