16
 energy: -23.417645634331 gnorm: 0.000047931505 xtb: 6.7.0 (08769fc)
C            2.74117586409223       -0.23769677951895       -0.84596406580645
C            4.31132528765029        0.23136794199904       -0.98725238553913
C            5.11926449588923       -0.78036380807803       -0.27354759453590
C            4.71379330608039       -0.47956548272505        1.06389750036185
C            3.45393013809486       -1.08145527379128        1.14773596138018
C            2.58082464385576       -0.05959346803747        0.62207516660812
C            3.22315499912744        1.29675005659678        0.84214492946957
C            4.62041084522194        1.02029603750951        1.18573276883600
N            4.29743863733113        1.45723267865388       -0.15827063950230
H            2.57163437137003       -1.23819104418562       -1.23897316921786
H            2.15651507630029        0.49605998237824       -1.39902238743712
H            4.57148678285077        0.43761055500162       -2.02204796686887
H            5.27783662966481       -1.76838530457462       -0.66712525442027
H            3.26752972375894       -2.13526644881237        1.02732414795100
H            2.66792164456690        2.17582140592145        1.12447288705538
H            5.28418755414498        1.60431895166286        1.80232010166580
