19
 energy: -29.719828019172 gnorm: 0.000046802177 xtb: 6.7.0 (08769fc)
C            0.92113699827094       -0.12177880585350       -0.01289373076662
N            2.35783965987418        0.09516176462770       -0.05209042755474
C            2.95237489052603       -0.25924405365002       -1.33940006442212
C            4.46299894431847       -0.21204803589307       -1.29197283880277
N            5.19675188411711       -0.51118871428679       -0.29390275134828
O            4.65969032450559       -0.89293619867515        0.87330271360244
C            5.17017220448631        0.18991635036975       -2.54025385985910
C            6.66733213092889        0.11679359554253       -2.49637310428073
O            4.54988628533716        0.54867713582252       -3.52044001746335
H            0.54654858888597        0.19745307872830        0.95769091133380
H            0.72511710481474       -1.18783843618443       -0.13176352951944
H            0.38280108411842        0.42107938613273       -0.80037421440493
H            3.66864297653195       -0.79344407968935        0.85019968425147
H            2.55470736190561        1.07399926502126        0.14605921135185
H            2.60398009267020        0.37493862552611       -2.16897563254437
H            2.65416141962713       -1.29064420689177       -1.57196531613492
H            6.97246129034001       -0.90673346194639       -2.29441367367247
H            7.03870535094695        0.73202068502516       -1.68143540186362
H            7.08137140779434        0.45143610627426       -3.44387795790211
