13
 energy: -28.966024459701 gnorm: 0.000115044777 xtb: 6.7.0 (08769fc)
O            1.10592260109485       -0.07568683328402       -0.04174358503977
C            2.29828396123966       -0.04751547446916        0.04285804110200
C            3.27393600304953       -1.10803549226783        0.53583221323096
C            3.89318205748747       -1.70623949369018       -0.75352077196587
O            4.76487348090817       -0.65909469730709       -1.16555044568399
C            4.62360417203068        0.35044444392199       -0.18515090273246
O            4.35602051495941       -0.32014812423771        1.01296671188368
C            3.27328441459390        1.04916867101450       -0.43878021447405
O            3.03241143945279        2.12191745550017       -0.90485624349116
H            2.91646754370864       -1.80625407265587        1.28553467798139
H            3.15274550580545       -1.91861892297111       -1.52896836106738
H            4.48412479094358       -2.60009668872163       -0.53569357904539
H            5.50659351472587        0.98340922916795       -0.13839754069796
