17
 energy: -28.751349959425 gnorm: 0.000059159421 xtb: 6.7.0 (08769fc)
N            0.95714826752397        0.20979877570497       -0.10873883760041
C            2.33560625894761        0.10422332162919        0.02627350629894
C            3.25461556310589        1.10967026156948        0.09436350056495
O            4.52763452769027        0.59825268402443        0.12804716124464
C            4.39487484697640       -0.73174343783384        0.09488905480160
O            5.50327448015158       -1.49492379436542        0.11749320960316
C            3.08564259546652       -1.11464963971378        0.02761547224444
C            2.60312123883078       -2.53288651078348       -0.02289597960000
N            3.65559211726910       -3.37609431381988       -0.59573863010288
H            0.60107626849180        1.11782145079682        0.15335372684885
H            0.44922498909393       -0.53859050594851        0.34114756063992
H            3.16097650384014        2.17519746693453        0.10750305559145
H            1.65872384654140       -2.57706904552684       -0.58739166519511
H            2.40515094321364       -2.89992883127976        0.99256392677425
H            3.74181356001301       -3.18658229567678       -1.59012308987134
H            3.42211827516886       -4.35718207136321       -0.48823310840169
H            5.17659571767511       -2.41341351434792       -0.02508886384076
