16
 energy: -27.082512767403 gnorm: 0.000092744064 xtb: 6.7.0 (08769fc)
C            1.24260393892193        0.56155875895682       -0.35448081676291
N            2.44465093143299       -0.15359448595516       -0.02503118415604
C            3.03611147760933       -1.05912416227907       -0.84464828467476
C            2.58548996271861       -1.41649221170613       -2.08117836273276
O            3.23881601754755       -2.33699391991312       -2.84505858666792
C            4.38001076418400       -2.92312017964384       -2.36343720799496
N            5.03763780958479       -3.78602406483424       -3.02080095029309
C            4.80501043217759       -2.49890718377706       -1.04037533901725
N            4.18296263673106       -1.63291582506956       -0.33185310798899
H            0.98448939217951        1.21844894589963        0.47129605302632
H            0.41117905469278       -0.12886712914788       -0.52808162996905
H            1.38192068261361        1.16725996198976       -1.25545522277306
H            2.90080394802078       -0.00203958510184        0.85735661534199
H            1.70741807163693       -1.03171387254661       -2.57041315374528
H            4.64108946714219       -4.00028212165920       -3.93217580792241
H            5.70209541280634       -2.94810292521251       -0.64025301366982
