14
 energy: -26.042776271066 gnorm: 0.000068849588 xtb: 6.7.0 (08769fc)
C            0.97984151509722        0.04526964198489       -0.08366180941316
C            2.46583157693073        0.09968256124405       -0.08212651973822
C            3.34664387574232       -0.94445602356601       -0.08153210819948
N            4.66952603015320       -0.50628661662849       -0.07999958400923
C            4.62746454094580        0.82723580126357       -0.07962016524283
C            3.28660834536819        1.26460815285478       -0.08088220426270
N            3.35394811109245        2.61141528591386       -0.08033903655261
N            4.52365471557213        3.00510234876858       -0.07916965900045
O            5.43973304884151        1.86526740562711       -0.07842737669019
H            0.64043946971011       -0.98703695696446       -0.08483808264272
H            0.58565297772278        0.55274818986844       -0.96312189849718
H            0.58389564899867        0.55130220442619        0.79584756339678
H            3.14030697053191       -1.99636998147938       -0.08207435430918
H            5.48407317329297       -1.09781201331314       -0.07933476483884
