11
 energy: -20.826681722335 gnorm: 0.000089667651 xtb: 6.7.0 (08769fc)
O            1.15325700015807        0.03693917910032        0.60991240944759
C            2.29090588803614        0.06669799742374        0.22795996152386
C            3.15269641044871        1.28846462153868       -0.01528123209240
C            4.45428856274365        0.71784543136780       -0.47643122631435
C            4.45830945660016       -0.61700948490306       -0.52954155059965
C            3.16577602450853       -1.16206980212470       -0.11504039138329
O            2.81080305934905       -2.31465588803974       -0.04050594788759
H            3.25746086567039        1.87840274830254        0.89921329195262
H            2.69674004942091        1.94266460077011       -0.76323927359701
H            5.28378033093944        1.35721261636564       -0.73121376698159
H            5.27631235212495       -1.24728201980133       -0.82984227406819
