18
 energy: -28.413302747630 gnorm: 0.000074771102 xtb: 6.7.0 (08769fc)
C            0.85504399742769       -0.30185563100928       -0.08978023586380
C            2.33507011309359        0.05397813816699       -0.06785449883264
N            3.12245485703212       -1.25569752608447       -0.11405113487171
C            2.76762624954728        0.86370861934971       -1.23834092191400
C            3.40328322709235        2.06168132986390       -1.34736081569331
C            3.62713953701418        2.31648053508280       -2.76825209042006
O            4.18927513807837        3.32247172539513       -3.28987596268199
C            3.09316611874086        1.18065113175885       -3.37784642149981
O            2.57031338195846        0.29648243895210       -2.46097870919008
H            0.58565596830480       -0.94077585091985        0.74887693032033
H            0.59974163308387       -0.79175482972730       -1.02666256348972
H            0.27033863580246        0.61145896876316       -0.02499210158545
H            2.60053919970281        0.57491680889899        0.85444226678486
H            2.95259006453815       -1.66860859774900       -1.04228596634853
H            2.82346957035442       -1.91214099212917        0.61703682658998
H            4.12773209837929       -1.06539520720295       -0.02969357372179
H            3.67625688797830        2.71812516015012       -0.54268957508147
H            3.01495332187094        0.89854377844029       -4.40985145250087
