14
 energy: -28.363022991216 gnorm: 0.000038267929 xtb: 6.7.0 (08769fc)
C            3.11288248304912       -0.87639875208442        0.79227782695291
O            2.56177169976208        0.05119215432676       -0.13613116622906
C            3.15032752605147        0.10962018793968       -1.33742661801705
C            2.68889250378904        0.96898289301746       -2.29486580801880
O            3.26182391805235        1.04507499447832       -3.50313585000929
C            4.34003839134354        0.25721494933619       -3.82583174738719
O            4.83290096617729        0.35232015364376       -4.92726706597138
C            4.77513334418171       -0.63303766857833       -2.75741122584474
N            4.21629697587904       -0.69722145722255       -1.59848275420942
H            2.50946863214940       -0.77673019558947        1.69133185379364
H            4.15645634173342       -0.63726179831044        1.00564868709335
H            3.05235866706601       -1.89495173345500        0.40411862532181
H            1.85205740402078        1.63724428685783       -2.16264765193008
H            5.61961114674476       -1.28027801435980       -2.94874710554469
