20
 energy: -29.500991686603 gnorm: 0.000052437398 xtb: 6.7.0 (08769fc)
C            0.72937692238016        0.36528011562759       -0.22594076653587
C            2.19773743145503        0.16800312294715        0.07185464467818
C            2.55039238246069        0.16514521009462        1.55197195160197
N            2.33964299186901       -1.16674781017170        2.11083760987127
C            3.20106061011465        0.67102151431033       -0.90961268635640
C            3.01183368163546       -0.81845421962899       -0.76308827780999
C            2.35906067340267       -1.59230319424387       -1.84395004957422
O            1.81995904855784       -1.11667069587705       -2.81116685364264
O            2.39045785252845       -2.93175934322787       -1.67805454381339
H            0.41873330192350        1.35790532150040        0.09788819088270
H            0.12164709130895       -0.37372441482831        0.29475341212933
H            0.53757381541591        0.27522442526250       -1.29174256262431
H            1.96276029160370        0.94988637143919        2.05655945221758
H            3.61008602860715        0.40371096459552        1.68161197090421
H            1.35785619087209       -1.41905029194360        2.05183281159940
H            2.59545034656023       -1.17666677311282        3.09249408505062
H            2.79286841660317       -3.18425870756870       -0.83399412122124
H            4.12920474364835        1.09501739508483       -0.55759137454370
H            2.82761975337527        1.10693780805877       -1.82469262705582
H            3.76261842567786       -1.36654679831826       -0.20523026575792
