13
 energy: -28.904931938719 gnorm: 0.000027169670 xtb: 6.7.0 (08769fc)
O            2.97169491175861        1.01108299569191        2.13029478874779
C            2.37640202204976        0.20046618315430        1.48593844560140
C            3.03808322472702       -0.97135356854968        0.75085293977994
O            2.40013648856976       -1.90256276377240        0.33959704189880
C            4.55891829439344       -0.84004113137722        0.63071156198800
O            5.10974832910836       -0.15295224163874       -0.18621310224194
C            5.25359410539915       -1.63010397306871        1.68950433782952
C            4.93430670747201       -3.06534660727921        1.84602912716303
O            4.44690885365566       -2.10889721337076        2.72932054607182
H            1.27904804176920        0.20526841542268        1.35886955358995
H            6.24780386854548       -1.28124922391059        1.95827801935604
H            5.71183523487482       -3.71828398966074        2.22657262954208
H            4.20396991767663       -3.52569688164073        1.18876411067370
