15
 energy: -29.990866606326 gnorm: 0.000041936762 xtb: 6.7.0 (08769fc)
O            3.05862881710596        1.03213988014130        1.08691547941233
C            2.52050875941170        0.23195095004193        0.05777732232701
C            2.68264324053254        0.99397459235352       -1.27699835223399
O            4.03675083078177        1.13448472948228       -1.64798871900633
C            4.52881440326109        2.38505933310060       -1.21160730973563
C            3.35347628651631        3.30201693913198       -1.01978596336660
O            3.35198330690334        4.48613765322357       -0.81993126296653
C            2.12259911322629        2.38778441002560       -1.09593082090578
O            0.97187639171478        2.71068476463254       -0.99258299140732
H            2.99652831333242        0.55477687554574        1.92260116481072
H            1.45040374607738        0.04616365687417        0.21796656264333
H            3.05654810708039       -0.72219183787759       -0.02117542794688
H            2.16852671047120        0.43702940708465       -2.06659034488854
H            5.24083726488187        2.75895822704165       -1.95172267817853
H            5.04382470870298        2.28231041919807       -0.24369665855725
