16
 energy: -27.456713791462 gnorm: 0.000044045861 xtb: 6.7.0 (08769fc)
C            1.09507469716385       -0.00609826877767        0.05253906804081
C            2.57693273727245        0.14023706793021       -0.07979545955875
C            3.23481153651552        1.35178212909782       -0.17016918755183
C            4.61937060412230        1.38435130639554       -0.28998489112861
N            5.34882007771502        2.49895755702711       -0.38376322639641
C            5.38307295826714        0.12515849832420       -0.32056974297701
O            6.62905182252146        0.13890126528440       -0.42785367588868
C            4.57862171638240       -1.01684801830176       -0.22040953460153
O            3.24475313608549       -0.99462226136976       -0.10598025260534
H            0.61865258327238        0.96856198581082        0.06621757030208
H            0.85144801246024       -0.53778745670741        0.97154485392612
H            0.69973558430193       -0.58734592675089       -0.77960503936743
H            2.67014393013695        2.27107119221663       -0.14716503544850
H            4.95044153815843        3.42033367266764       -0.37559190071793
H            6.34634742723484        2.35733596103170       -0.46547342829467
H            4.98887163838960       -2.01401870387856       -0.22834011773233
