15
 energy: -25.362713531754 gnorm: 0.000109102063 xtb: 6.7.0 (08769fc)
C            1.14094050420582       -0.90712853966289       -0.77515005694595
N            2.36276478655411       -0.31518313578896       -0.26158776326369
C            2.74765632667711       -0.57027920019192        0.96152060958781
N            2.06420343259266       -1.34564853243293        1.82528624504175
C            3.09654630430483        0.52349380362485       -1.11101772655270
C            2.66979677828275        0.80298979467236       -2.39502275824531
N            2.33210081713109        1.04987691053681       -3.47505003934560
C            4.28125488762237        1.10117494852036       -0.68856039330179
N            5.27363297508445        1.58430131142629       -0.33935571841229
H            0.29192440546985       -0.61087177273310       -0.15671924198143
H            1.22533770464056       -1.99576976507497       -0.79227072735363
H            0.97125733939653       -0.55783853297125       -1.79193665036013
H            3.65072127924370       -0.09550476975336        1.31683094211641
H            1.29680856115522       -1.91636945062264        1.51460286698157
H            2.49177389763904       -1.57590306954889        2.70394041203505
