19
 energy: -29.757229231815 gnorm: 0.000060373665 xtb: 6.7.0 (08769fc)
C            0.79633702212097        0.45851268584948       -0.13620581564822
C            2.24894828123978        0.21708104239076        0.20297948385390
C            2.58861545112092        0.24395891367303        1.68804971861572
N            2.37277116437442       -1.07928548046682        2.26322989919572
N            3.19120951184186        0.69299732110986       -0.76910458853048
C            3.06488057055440       -0.74270639990239       -0.62046388333732
C            2.44624754491312       -1.52600452053112       -1.72883628523489
O            1.93904153757385       -1.06934416248125       -2.71611917798972
O            2.47230801835762       -2.86139826177216       -1.52975771062606
H            0.49857554679496        1.44465449076951        0.21505804216401
H            0.15925217823176       -0.29076538486885        0.33028693342241
H            0.66198522829246        0.42003915559080       -1.21323034104302
H            1.99802350311459        1.03863322760699        2.17236665549212
H            3.64907225707294        0.48680563380061        1.82055861912569
H            1.39138947632976       -1.33123738032160        2.19690544793238
H            2.61702300181365       -1.07518516238602        3.24814131319346
H            2.85290475967475       -3.10300992917722       -0.67218472647352
H            4.05665250439679        1.07357774011375       -0.40006543739374
H            3.83957244218130       -1.28368352899714       -0.07602814671847
