13
 energy: -24.696320772174 gnorm: 0.000110488532 xtb: 6.7.0 (08769fc)
O            0.92072262761826       -1.35664500122697       -0.00435945983331
N            2.09582907019717       -0.63623981464984       -0.01619206884688
N            2.09295479255640        0.59812157753896       -0.01316768507723
C            0.97947435891496        1.37429386815170        0.00163368198556
C           -0.25283264032581        0.78748619597812        0.01445600837233
C           -1.60459269188423        1.16023031132835        0.03107461460863
C           -2.35444939950329        0.00271118753888        0.03686965577787
C           -1.52574818550466       -1.15259236104465        0.02442698921381
C           -0.23740763394759       -0.71025800822811        0.01055574924492
H            1.16155301456381        2.43858581783355        0.00219108841448
H           -1.97290296944290        2.16719452095664        0.03788715155559
H           -3.42902799357381       -0.03849981189334        0.04920181934011
H           -1.85832234966830       -2.17121848228328        0.02574245524412
