13
 energy: -28.575289400075 gnorm: 0.000151843838 xtb: 6.7.0 (08769fc)
N            1.05704858922739       -0.04040924793614        0.01192997545817
C            2.30743452673695        0.10917218319131        0.03800998979377
N            3.03300677964298        1.27498588792983        0.24437001271933
C            2.52300579699334        2.51991001098457        0.46731236637938
O            3.20897191150826        3.49224479583709        0.63969814369567
C            3.09892853461676       -1.16427196744406       -0.18762069208522
O            2.55112866350069       -2.21933150455414       -0.37478170775783
C            4.63259800580459       -1.14666294683826       -0.18330974051106
O            5.34073036542647       -0.19340293564823       -0.01535854664262
H            0.47778627739841        0.77902155952713        0.15705719274347
H            4.05176789600532        1.21472780202287        0.23247179287379
H            1.42169360886299        2.56090564315648        0.47702909963276
H            5.03386904427585       -2.15926928022847       -0.36195788629961
