13
 energy: -26.692792396250 gnorm: 0.000037785763 xtb: 6.7.0 (08769fc)
O            2.46371123447449        0.70144969336358        0.95284965339693
C            2.22876254726097       -0.10494034031713        0.10072791133388
C            3.04869056543032       -1.35987801751056       -0.19597803122468
O            2.50075710326957       -2.34256443588767       -0.63900849164629
N            4.39794608391021       -1.31969527005940        0.07225924121215
C            5.19255623338871       -0.28172099467609        0.53861297644031
C            6.44865946644431       -0.78047544450026        0.62260277526082
N            6.46989330788503       -2.09747101834044        0.22457948395901
C            5.26307207137268       -2.39518139303798       -0.09648475527097
H            1.32730397406925       -0.06202709226934       -0.53610475254832
H            4.80018557613577        0.68613298132076        0.76639037749949
H            7.34948783386795       -0.29489042299051        0.93958613239209
H            4.91642400249073       -3.34470824509498       -0.45146252080444
