18
 energy: -24.446143143810 gnorm: 0.000040090312 xtb: 6.7.0 (08769fc)
C            1.17882827983721        0.30976121006837       -0.47422799356924
C            2.59278057412259        0.42784734552012       -0.01140791590832
C            3.37977712750925       -0.26242282011414        1.05289793531993
C            3.13340367079399        1.22684769831453        1.15019733586867
C            4.37793801719667        1.92649100782227        0.60251090154417
C            5.42569130982691        0.96958591432355        0.60436434388834
C            4.61036461878392       -0.19342519675045        0.16996562512801
N            3.73249697619164        0.49695111548545       -0.95259031563518
C            4.10783058863484        1.95502167222587       -0.90194968175780
H            0.51334178389222        0.25090557607721        0.38474669206997
H            1.05582679315166       -0.58529384172714       -1.08216317007902
H            0.90333362142981        1.17487237706815       -1.07621467330654
H            3.12032020736460       -1.02089382201221        1.76920903681821
H            2.51014593488093        1.67438610019328        1.90554281132863
H            6.42852689642354        1.16032996317613        0.26584427697026
H            5.10071334391475       -1.09463626824852       -0.17869956574535
H            3.25326457274291        2.55365692744176       -1.21220282280292
H            4.97645568330258        2.16647504113580       -1.51983282013182
