16
 energy: -27.091648954508 gnorm: 0.000089918218 xtb: 6.7.0 (08769fc)
C            1.15946660153026       -0.17706517179995       -0.01566209773202
C            2.64457231386003       -0.13586241699148       -0.01541298360111
N            3.31523697926681       -1.23265421601898       -0.01703046515639
C            4.69165055321205       -1.18593125194030       -0.01677513381034
N            5.30548332644113       -2.39995560256956       -0.01911146628698
C            5.34012804068357        0.00862307486000       -0.01467012955781
O            4.65840082361603        1.19123941249244       -0.01294893504462
C            3.29129609683185        1.17839195668479       -0.01329338119055
N            2.60467690363432        2.24589521993873       -0.01183942934674
H            0.81637542416088       -1.20696746770333       -0.01760005670101
H            0.78454589441987        0.35274979656037       -0.88892389329867
H            0.78432726937402        0.34949993573485        0.85947319138113
H            4.72724328683569       -3.21804227066768       -0.01888037755379
H            6.30296676277525       -2.47774558809315       -0.01738016905826
H            6.40846392031229        0.14544433964998       -0.01426181880892
H            3.16553580304594        3.09395024986328       -0.01044285423392
