13
 energy: -24.372238589838 gnorm: 0.000040097829 xtb: 6.7.0 (08769fc)
N            0.90947535880398       -0.22864516192543        0.04270530031445
C            2.17502136373961       -0.21902224641657        0.04586970116533
N            2.99902606699961       -1.34897718302317        0.05037354819106
C            4.36246311274603       -1.24817167279905        0.05354033874524
C            4.94735857788547       -0.01061469365262        0.05234635271053
N            4.20265716358350        1.12416450183756        0.04800624975106
C            2.92167320047932        1.03197061325396        0.04496859185288
C            5.12582678763146       -2.43766598814365        0.05796099016942
N            5.74276669818179       -3.40459104513573        0.06154954504180
H            0.47819074781900       -1.14940164732581        0.04362363719701
H            2.56747546664878       -2.26633262321468        0.05129257241796
H            6.01814433969872        0.11507963842108        0.05468162027141
H            2.34470111578272        1.94538750812411        0.04169155217185
