15
 energy: -27.366145207612 gnorm: 0.000040440669 xtb: 6.7.0 (08769fc)
C            1.07631733804147       -0.13486833109923        0.07996336800164
N            2.51244857268985       -0.05421155746331        0.08154372359000
N            3.18372124266074       -1.20027284402180        0.08384325488479
C            4.48192780895263       -1.16468176964436        0.08543854433551
O            5.15910223756799       -2.31658652337576        0.08779444017581
N            5.23023473071291       -0.02816296299934        0.08485131984698
C            4.58150152499660        1.08338839115284        0.08261054450968
C            3.12620554156621        1.18219427109696        0.08084100659453
N            2.38939971071396        2.22939009518109        0.07882836055278
H            0.79410770655228       -1.18393180057949        0.07851772731311
H            0.68700859068362        0.37630734978402       -0.80136302364008
H            0.68493379696838        0.37422224372122        0.96160761296472
H            4.52622091197655       -3.04986310711471        0.08798494192540
H            5.16555903544912        1.99605729464425        0.08206354263323
H            2.92103125046769        3.09465925071763        0.07833463631191
