14
 energy: -26.048253272358 gnorm: 0.000096256896 xtb: 6.7.0 (08769fc)
N            1.01948228556703       -0.05946725735192       -0.28332446596454
C            2.32891691367307        0.02866867821281       -0.03808443099290
N            3.09617739144908       -0.96841165657035        0.32565994687609
C            4.44156492620517       -0.58927508070493        0.51652449530806
C            5.39613226973333       -1.50831823740094        0.90169673315829
N            6.18631400563008       -2.28814746546879        1.22444860833225
C            4.57434391952252        0.79112821457145        0.25334323679567
O            5.55360343146391        1.53025115086411        0.29525590392961
C            3.14638359186719        1.26581819231074       -0.13333566458646
H            0.53136554861061       -0.93505197912571       -0.19658586415874
H            0.50325929477898        0.75812896687958       -0.55548558313897
H            2.79353148937703       -1.92298327509303        0.46491328706027
H            3.15090987938784        1.68963513815209       -1.13839388265040
H            2.81109505273417        2.04429461072490        0.55323768003177
