16
 energy: -27.092260565063 gnorm: 0.000031134059 xtb: 6.7.0 (08769fc)
C            3.32300470965558       -0.97293825928715       -0.25471094559296
O            2.63416667116488        0.04896251379581        0.44476211366809
C            3.15596485292959        1.29672459547919        0.33525182890152
C            2.55174329122643        2.33935153511279        0.97898280670419
N            3.08639488447302        3.58652490469499        0.86050985147169
C            4.22892781939201        3.84933089853861        0.10766546079212
N            4.77502349729648        4.99028790316602       -0.04093804621746
C            4.77153582167552        2.66350820321410       -0.52233863650429
N            4.27319139652685        1.48107538978516       -0.41609382084020
H            2.76899140161361       -1.88777365526966       -0.05494251468887
H            4.35085030081629       -1.06595146950518        0.10384922269905
H            3.34092594083969       -0.76698155790741       -1.32753599844283
H            1.66599575836647        2.21484413086000        1.57905281194132
H            2.63984993699063        4.36031656104502        1.33702454523916
H            4.30690137491071        5.75029748329072        0.44793349695777
H            5.65978234212223        2.78119082298699       -1.12571217608830
