12
 energy: -25.379130829031 gnorm: 0.000060515552 xtb: 6.7.0 (08769fc)
O            1.08190358322295       -0.02453753675582       -0.00316771320677
C            2.28615760654771        0.00570314552146       -0.00950134165615
C            3.23779820603065       -1.17175411982680       -0.01367855254281
C            4.51439424414687       -0.76892355471619       -0.02092952404977
C            4.51395651765083        0.69919015326082       -0.02177211368914
C            3.21113900754838        1.15242525404216       -0.01497753126983
O            3.24162525561830        2.49870820917092       -0.01584068014711
C            4.54856531622804        2.78899917583064       -0.02312565659635
N            5.35290170812789        1.76041264177207       -0.02692924608224
H            2.87040287893773       -2.18114941138283       -0.01099495994884
H            5.39895571391753       -1.37855292868729       -0.02534800758359
H            4.85567996202311        3.81607897177087       -0.02536467322741
