15
 energy: -27.381879195163 gnorm: 0.000068659003 xtb: 6.7.0 (08769fc)
C            1.04596082053770       -0.03465467207855        0.39183860886328
N            2.34383061918254        0.14227898901604       -0.20778735234785
C            3.04028934906207        1.28116221207902       -0.09326584765028
N            2.54496341784469        2.28949804042468        0.58530649105924
N            3.30351786542537        3.39407328297231        0.65365595365095
C            4.53481845171023        3.56672599422679        0.08718761160318
O            5.16324413850092        4.61298205094565        0.19882109712575
C            4.96613415677786        2.36841814066849       -0.63814803615745
N            4.26408186041368        1.29761219997883       -0.72179360246628
H            0.68137720868671       -1.03207449173522        0.16571740027962
H            0.34589597294515        0.70816714202281        0.00372676370752
H            1.10882461691706        0.09602669882425        1.47417081650200
H            2.77180583373643       -0.59683233741004       -0.73887959049156
H            2.89128424986142        4.15511642337747        1.18540212036215
H            5.92975143839819        2.38722032668747       -1.13117243404025
