15
 energy: -29.649767827030 gnorm: 0.000069508457 xtb: 6.7.0 (08769fc)
O            1.58516327856974        1.32620723981638       -0.38222808515373
C            2.49639673030747        1.74972680570373        0.30011796215057
O            3.10272317404688        2.85535057124175        0.28765563383561
C            3.16314480948079        0.93934068012257        1.45194705765794
O            2.73162490089042        0.86411631496179        2.57942013147226
C            4.63504657519703        0.56360725985533        1.14369499199731
N            5.51250682142564        0.95651209672633        2.22308440163212
C            5.66665974632852        2.21237215833894        2.58101107084371
N            5.14812598001738        3.22183518735643        1.94458374461548
H            4.94167071323984        1.04900935307794        0.21358557571807
H            4.67774862406725       -0.51833792339308        1.01221526910951
H            5.87033261776646        0.23246038526467        2.82953756038840
H            6.31000359607338        2.39497737207918        3.43618318419449
H            4.37349342415776        3.10552354011827        1.22895025441695
H            5.31937900843148        4.15834895872980        2.27544124712129
