15
 energy: -27.370251667519 gnorm: 0.000013346773 xtb: 6.7.0 (08769fc)
C            0.95817054754631        0.06907955814591       -0.05953344996918
N            2.39406474925310        0.06277109028467       -0.06248281789956
C            3.23133876042839        1.18155523049510       -0.06380104645279
N            3.02313022262863        2.42733905446707       -0.06297345547959
N            4.49387050578494        0.62458633909889       -0.06656051235908
N            4.47181740600495       -0.70597474815856       -0.06695139117159
C            3.21037335559392       -1.04820283158948       -0.06450579659949
C            2.78648048110258       -2.43330391236811       -0.06410788423378
O            1.64162640926255       -2.82659625751258       -0.06186774046826
H            0.61062575070374        1.10192858578700       -0.05898230176867
H            0.57747161826715       -0.44112161673615        0.82713753497894
H            0.57386935216220       -0.44138960739202       -0.94448743907695
H            2.04932119103402        2.70485679705591       -0.06090736626533
H            5.35839514159474        1.13968423336715       -0.06810629519415
H            3.64654450863278       -3.12443191494481       -0.06613003804053
