12
 energy: -24.081378396857 gnorm: 0.000103455719 xtb: 6.7.0 (08769fc)
F            1.01667236435227       -0.11513902863037        0.29122059595759
C            2.34849636108320       -0.02905363820626        0.09927852647904
C            2.94564080151033        1.18314771505887       -0.03059436405667
N            4.28934663862640        1.21117747995826       -0.22184637378937
C            5.06575676765396        0.04655286434616       -0.28850876560111
N            6.32018542371766        0.00665567462373       -0.46449029395648
C            4.28482603264239       -1.17066796086853       -0.13247765107665
N            3.01302000862153       -1.20256666626174        0.04883017372777
H            2.40559686960180        2.11543768709507        0.01108949895609
H            4.75818890310467        2.10346747774144       -0.32142748624299
H            6.77412685459495        0.91114230714039       -0.56209469235441
H            4.81399297449084       -2.11086391199701       -0.17282916804283
