13
 energy: -24.323265330004 gnorm: 0.000066010780 xtb: 6.7.0 (08769fc)
N            1.11373806094502        0.02021328996230        0.32175457428676
C            2.36009694190910        0.07629100895720        0.13094095480245
N            3.08959581927145        1.27341652988949       -0.03618248133279
N            4.38783500850390        1.35511548396587       -0.23839772181116
C            5.06440766653888        0.24000320796908       -0.28819582245773
C            4.36627024062937       -1.01464097698479       -0.12098341118184
N            3.10168193505981       -1.08326484840945        0.07439430609731
C            6.45855562678406        0.27396606685842       -0.50366808340068
C            7.64552919816135        0.23782724733305       -0.68475673795890
H            0.64337907883425        0.91944479376017        0.34983024844922
H            2.60696364361231        2.16625945433066       -0.00574060510829
H            4.91391694653607       -1.94837646811959       -0.15912642131130
H            8.68285983321443        0.22683521048764       -0.84381879907305
