18
 energy: -28.424796335560 gnorm: 0.000056087752 xtb: 6.7.0 (08769fc)
C            1.12226931282218       -0.21924469994774       -0.01022041433483
C            2.61053181512192       -0.00725269668159       -0.14986524458920
C            3.16300312702371        0.85379650178515       -1.22198711131047
N            3.38926313801076       -0.57150912692328       -1.22801758431913
C            2.80512690784125       -1.39025597447031       -2.24793134638337
C            2.48369842945278       -2.78381387304849       -1.78391941840353
O            2.51264753708860       -3.17993054095909       -0.64330620067518
C            2.06477255697012       -3.72898424261844       -2.90624391458018
O            1.96493999613327       -3.42058403158895       -4.06238975238389
H            0.72703581032336        0.48644945139945        0.71771727423737
H            0.91851149027246       -1.22887082548928        0.34280384282529
H            0.60077669585366       -0.06378772999540       -0.95263708734874
H            3.14213195745775       -0.03524798452610        0.79666266727824
H            4.04121761894557        1.45845858600594       -1.04233121570162
H            2.46965111582634        1.26966358978664       -1.94699733955661
H            3.51606494795810       -1.46729614735468       -3.08029056142310
H            1.86934815748796       -0.98852979552013       -2.67969334609466
H            1.85305938541015       -4.75087045985367       -2.54210324723644
