16
 energy: -27.414945126586 gnorm: 0.000104645561 xtb: 6.7.0 (08769fc)
C            1.42606562983016        0.71605382043858        0.50466722665883
N            1.56779738978228       -0.56139976828457       -0.16723312489927
C            2.25172803605470       -1.59082396372384        0.58111001747820
C            2.03536242742498       -2.94251061348591       -0.03897864837747
C            3.16754131877200       -3.62710748418767       -0.22456934281574
C            4.33102653058667       -2.85382312507808        0.21157445604270
O            5.48083653534299       -3.20943685835728        0.34026879891678
C            3.78342634313903       -1.46855210886866        0.58735104429154
O            4.42577288305516       -0.46636784317380        0.76701212116950
H            0.85956166098715        1.38107468566678       -0.14420778913288
H            2.38587296017296        1.18757585790900        0.74562911816081
H            0.86650235290962        0.56515932074193        1.42789289596234
H            1.99770585598978       -0.43891505210119       -1.07878485000180
H            1.87540219183098       -1.57179055571795        1.61197056336944
H            1.04445286102004       -3.25562534771237       -0.32104265908543
H            3.26093502310146       -4.61383096406504       -0.64357982773741
