14
 energy: -24.118527673835 gnorm: 0.000019435477 xtb: 6.7.0 (08769fc)
N            2.05261923132380       -0.66779195702043       -0.11405805375551
C            2.13194883134678        0.69232213797182       -0.11788887351662
C            1.00062427033345        1.45737828663476       -0.02851454006995
C           -0.22371342135671        0.78225181911471        0.06577597834740
C           -1.56359154769075        1.07118570644872        0.17136030941596
N           -2.31118045636232       -0.06209426118253        0.22792706986756
C           -1.51193517733378       -1.10992493332592        0.16334029734263
C           -0.16350421829173       -0.70214816717157        0.05841438997102
N            0.95412323407188       -1.37325538127576       -0.02963459321754
H            2.89993868516504       -1.22187372453599       -0.18072678157811
H            3.12257078827367        1.10797846195610       -0.19434194933947
H            1.05811472906849        2.53512761891840       -0.03091834462080
H           -2.04433684893343        2.03138266875878        0.21083957498418
H           -1.89499809961439       -2.11205827529110        0.19160551616926
