13
 energy: -26.294015272881 gnorm: 0.000029610917 xtb: 6.7.0 (08769fc)
N            0.95179736570317       -0.01124900800937       -0.09488915429383
C            2.21453013794097        0.01185100844417       -0.09245933295739
N            3.05306799394657       -1.10928504300034       -0.09292800232647
N            4.37002468924849       -1.07274195043695       -0.09044330520272
C            4.93894178175765        0.08962877286447       -0.08727073094627
N            4.28385999820215        1.27468069351071       -0.08632667491321
C            2.99048535023590        1.26279309258699       -0.08875384573785
C            2.24874612618738        2.54751921767923       -0.08782276901041
O            2.76071494852504        3.63583295755651       -0.08506478836819
H            0.53348888352002       -0.93748935758043       -0.09736263182029
H            2.64690025814256       -2.04177501581847       -0.09540732866473
H            6.01615800120553        0.11993979434781       -0.08524571547686
H            1.15582446538457        2.40056483785567       -0.08998572028181
