17
 energy: -28.723479633891 gnorm: 0.000048301539 xtb: 6.7.0 (08769fc)
C            1.14247149763630        0.11261027610964       -0.07555351621027
N            2.58033534368234        0.19527570123845       -0.00259901358934
C            3.26223998857453        0.92519656550264        0.90687403561247
N            2.82951060909304        1.64438508939202        1.86626835667851
C            4.75642563111180        0.84737982049039        0.72817951463386
O            5.26347967434555        0.44699161790903       -0.29413746624108
C            5.55108076063091        1.30299770443030        1.94663542459227
C            5.69003184546136        2.79005878562588        2.03525720853822
O            5.99084016786857        0.50961294219242        2.73924031702707
H            0.86669755992098       -0.73677706301540       -0.69510866339142
H            0.71008072252605        1.02261939130839       -0.50474533143286
H            0.72809164401163       -0.03511885621093        0.92392180464720
H            3.12517516003345       -0.21948782390331       -0.74509365400104
H            1.81708867452735        1.68474205946391        1.94420645754987
H            6.02428838776319        3.19686324206728        1.08310216746993
H            6.37995011042020        3.05845025631391        2.83100557156033
H            4.69804222239303        3.18842029108531        2.24886678655644
