12
 energy: -29.207932226401 gnorm: 0.000101116133 xtb: 6.7.0 (08769fc)
N            1.29628163436467       -0.08359153265246        0.05820075508293
C            2.58360180204642       -0.40012245703787        0.06014517755260
O            3.37676245217821       -0.24455906004675        0.97734822521218
C            3.09906008584621       -1.03000980678992       -1.24271069155491
O            2.39877547806763       -1.52723452318968       -2.08188283352752
C            4.62297462706632       -1.06997316346670       -1.20103477578089
O            5.35580605120130       -0.73339518015573       -2.08854227274478
C            5.10062296017811       -1.52636112243113        0.18267161377049
O            4.90076307157349       -2.60899626567373        0.65798980452671
H            0.86473505788063        0.31524414498928        0.87921175893581
H            0.72442150414573       -0.30847565917315       -0.74286721667526
H            5.76076527545128       -0.77327537437221        0.64711045520267
