15
 energy: -25.357271953686 gnorm: 0.000118899801 xtb: 6.7.0 (08769fc)
N            1.23291519567768       -0.01228601087278        0.39886269957211
C            2.53494366503061       -0.31199749599316       -0.18846820527772
C            2.90907792535952        0.71998043524583       -1.13530168543553
C            3.19724903404381        1.61521296646191       -1.88723739064643
C            3.55226308874597        2.63216379522111       -2.78018947213600
C            4.77684269276699        3.06714583876037       -3.26964100821686
N            4.55209589716900        4.09165458582433       -4.10850275510094
N            3.29453494247903        4.32398427430591       -4.17552596539853
N            2.66245993120444        3.46160435195579       -3.38768710652439
H            1.26617561455739        0.86575888487301        0.90713005363823
H            0.96871420115919       -0.74375554648274        1.04967241778332
H            1.65803278207378        3.46846339795563       -3.29359505779886
H            2.45068071814043       -1.26538479190926       -0.72384576551277
H            3.35050392129202       -0.40670476831255        0.55318054572327
H            5.76233039029991        2.70386008296693       -3.06549130466923
