14
 energy: -27.614613593942 gnorm: 0.000074052360 xtb: 6.7.0 (08769fc)
N            1.07234043653485       -0.01472586382959        0.06616745117245
C            2.33881723541164       -0.13186095138709        0.06856944461322
N            3.14311997571355       -1.23637848537519        0.06895065949965
C            4.35790508606451       -0.71395748659892        0.07189701318200
N            5.49245667071224       -1.53306338002579        0.07323628146434
C            6.72699910048233       -1.08615061807165        0.07610151462759
N            7.01131243993459        0.18413312068159        0.07797216967946
N            4.44775101975457        0.60079604437659        0.07351501071385
O            3.11486641037089        1.01670036488772        0.07136164746054
H            0.62181129484968       -0.92476983352938        0.06427251761143
H            5.27922560773122       -2.52280522358780        0.07180493272108
H            7.52384494285871       -1.82221833364768        0.07687574264516
H            6.20367025747783        0.82962203026029        0.07710423559261
H            7.96258952210339        0.51698861584690        0.08014137901662
