16
 energy: -27.102722824570 gnorm: 0.000082143429 xtb: 6.7.0 (08769fc)
C            1.15695190784759        0.05169662595053       -0.05191695258272
N            2.59330950049344        0.07108061622375        0.06196943535408
C            3.17973441493679        1.15997364164204        0.36809333991381
N            4.57401364549948        1.11320158076673        0.46321231841173
C            5.31755247238794        2.19554403157433        0.77955839580108
C            4.69877578856091        3.38872580784462        1.01851268719545
O            5.34401919286813        4.54606196768486        1.34529044413639
C            3.27481799581394        3.40098620137355        0.91334804756307
N            2.56780858044785        2.37003182337041        0.61221164284240
H            0.86412752459249       -0.96386203035081       -0.31758283300404
H            0.80524783579649        0.74286961755381       -0.82339658976977
H            0.67495001264770        0.33252664908970        0.88904065153533
H            4.99797528768093        0.21519239262252        0.28011814311120
H            6.39058584774844        2.06528550907037        0.83026581868290
H            6.29724260715629        4.39606755017154        1.38225297975252
H            2.74737738552158        4.32943801541203        1.09609247105657
