15
 energy: -27.366603287617 gnorm: 0.000037867112 xtb: 6.7.0 (08769fc)
C            0.97476256511990        0.02032534162689        0.06294993269245
N            2.41028136369160        0.03034455971568       -0.07742797115830
C            2.93303262844390        0.12375329154116       -1.22250289124298
N            4.29819275556682        0.14116699954817       -1.45104859271143
N            4.60586941048106        0.24638173723827       -2.73974966360362
C            3.47351953794913        0.30074763429798       -3.38508130805420
N            2.41015220568791        0.23041958672729       -2.51107954187614
C            3.35185180107979        0.41864586959088       -4.82164403305851
O            2.29631350600720        0.46912994945455       -5.41641661919317
H            0.75498032956724       -0.06648044504201        1.12576505263650
H            0.51920403039548       -0.82768929734577       -0.46007656321105
H            0.52092462125525        0.94297934003170       -0.31514476133218
H            5.01007903781306        0.08151096162935       -0.74233783181478
H            1.44173657108385        0.25277921795344       -2.77654204628563
H            4.32490963585780        0.45924525303242       -5.33713316178696
