13
 energy: -24.386737353565 gnorm: 0.000028875110 xtb: 6.7.0 (08769fc)
N            2.04334129600023       -0.65727089395250       -0.10885096204687
C            2.04764842701487        0.70858760881720       -0.10739348505354
N            0.98674157206855        1.44059159383857       -0.02502414837954
C           -0.17811355777793        0.76250020745146        0.06353979744130
C           -1.49852275266550        1.10106819187593        0.16630863385512
N           -2.28245477464988       -0.01682200575190        0.22505427010198
C           -1.52830392889326       -1.09113051169581        0.16486142329881
C           -0.16224510049494       -0.73129778382781        0.05992864547358
N            0.95091339734493       -1.39928264005628       -0.02610106734042
H            2.90720250501115       -1.18499905198471       -0.17540607623382
H            3.01111292948867        1.18915272560211       -0.18084021511926
H           -1.94922662565082        2.07389177364695        0.20287220305921
H           -1.94809338679607       -2.07820921396322        0.19563098094343
