15
 energy: -25.644671938491 gnorm: 0.000104332730 xtb: 6.7.0 (08769fc)
O            5.96482218918837       -0.20729158559876       -0.83481285103382
C            4.71587316880417       -0.44711873906242       -0.39539957934794
C            4.25231754215390       -1.33444902992545        0.80526474162312
C            3.88937392664480        0.13063666998634        0.69069455128850
N            2.64538195801324        0.01185200410530       -0.07529492191472
C            1.88097943988505       -1.06097894438329        0.57913055363363
C            2.94792508718873       -2.12664778497915        0.31620640079692
N            3.13862755524986       -2.03451399397642       -1.13954785008768
C            3.38976645883175       -0.74272807220219       -1.09869259883001
H            6.34716628309546       -1.00846974534677       -1.22187028639946
H            4.93457955788096       -1.71359706838173        1.54944254797129
H            4.05246218571606        0.92976253813328        1.39205155767706
H            0.94997120551626       -1.24789365211621        0.04563864447124
H            1.70361167109513       -0.83693136836413        1.62681785243877
H            2.83543177073627       -3.14343122788840        0.67852123771308
