13
 energy: -24.758181687168 gnorm: 0.000061997683 xtb: 6.7.0 (08769fc)
O            0.89919952548717       -0.08768450359567        0.02534555850661
C            2.10569010097613       -0.04590205149402        0.01810125784259
C            3.03862651860505       -1.24369337668548        0.01308585196966
C            4.31996347473399       -0.85001468224318        0.00493355909575
C            4.32676893548885        0.60559298040344        0.00401072466044
C            3.03250192478306        1.10038197217928        0.01172151301863
N            3.05006237127972        2.45867325114733        0.01077533785074
C            4.31852091850528        2.77243068040787        0.00276787225626
N            5.14599475371640        1.67923909471742       -0.00167254321567
H            2.66355693803843       -2.25010599507505        0.01597650287664
H            5.19620470781749       -1.47435168697095       -0.00008741463882
H            4.68906949135303        3.77751681552822       -0.00012911676809
H            6.15437033921541        1.69125750168077       -0.00795910345472
