15
 energy: -24.215573357228 gnorm: 0.000024042629 xtb: 6.7.0 (08769fc)
O            0.93073791607495       -1.37563436120543       -0.03165504844767
C            2.06249996702813       -0.68526937128840       -0.06478454449447
C            2.13118973548050        0.67869819907032       -0.07053720428657
C            0.94822915672186        1.44668471540032       -0.04023859113064
C           -0.24813697077677        0.78314641601050       -0.00526365497715
C           -1.61017109623508        1.15219559031490        0.03152083330359
C           -2.35475953953706       -0.00181238240895        0.05558599550887
C           -1.51148479122655       -1.14726262919891        0.03556192228642
C           -0.22624545220741       -0.69077585307732       -0.00160972885688
H            2.93420495852379       -1.32323002943868       -0.08702412212108
H            3.09523946538760        1.15790490112305       -0.09833966484907
H            1.00077422578017        2.52559372720891       -0.04475865829738
H           -1.98230406616681        2.15903521709089        0.03900253239339
H           -3.42920747477752       -0.05200520779407        0.08564119338652
H           -1.83672603406981       -2.16950893180712        0.04767874058212
