12
 energy: -25.343946560941 gnorm: 0.000067845449 xtb: 6.7.0 (08769fc)
O            1.24586933079957       -0.01068763671879        0.69633849243478
C            2.35540622470556        0.03362730607337        0.24753453201444
C            3.21530059238963        1.25739828701796        0.00767770608417
C            4.47862079522354        0.71178521304633       -0.55844691150482
C            4.47191564341153       -0.62984123051319       -0.67748176628024
C            5.51527069294706       -1.43333216415766       -1.17771733234383
N            6.35568930659125       -2.09906106090738       -1.58279876735331
C            3.18566229367177       -1.19385297519613       -0.20280652231984
O            2.82636175557311       -2.33994682821516       -0.15989769064809
H            3.38283219577473        1.80627892062754        0.93960053633744
H            2.72209510385524        1.95390539229568       -0.67746388866925
H            5.30195606505701        1.35036677664742       -0.83702838775144
