13
 energy: -28.199748775405 gnorm: 0.000109530230 xtb: 6.7.0 (08769fc)
N            1.09081440845658       -0.01218773704360       -0.06602900000694
C            2.46378345608709       -0.03993937997270        0.02250644234016
C            3.21614669750975       -1.17890255625150        0.02516425366124
O            2.74202964619557       -2.44390178668071       -0.00018443048998
O            4.56570412753104       -1.13918906944752        0.07672660269303
N            5.20931532932157        0.07780593245263        0.12561807258059
N            4.58555240284392        1.12233155304693        0.08169514655789
C            3.19392619875804        1.22262076128569        0.00672651340838
N            2.56260514230438        2.32672794401894       -0.04324314086678
H            0.57124126070485       -0.69460090611343        0.46573666540384
H            0.74000036564516        0.93349797788970        0.01175689305387
H            1.82610845637855       -2.44733179669982       -0.31216172069333
H            3.16846250826348        3.14102906351542       -0.04855229764197
