16
 energy: -23.387532836692 gnorm: 0.000096588204 xtb: 6.7.0 (08769fc)
C            2.17824826513837        1.18196502296724        0.15380702894888
N            3.47485999304800        1.59094583313736       -0.50757747967786
C            4.23685192496642        1.01330915420626        0.63309796138133
C            5.42485063808547        0.24688099900052        0.21849665802876
C            4.85849791012018       -0.58997879313172       -0.72382496268414
C            4.34615272157508       -1.85191047324724       -0.13952545772472
C            3.22525036052918       -1.52481400448811        0.55748510226762
C            3.00372812040079       -0.08093451973077        0.34873961703199
C            3.56769064889307        0.17299409335670       -1.03969934585040
H            1.33604941189602        1.11760532723962       -0.53475226034673
H            1.92796306878825        1.77453032712000        1.03381729897476
H            4.26781721064026        1.59559273547507        1.54934006389513
H            6.29326363602318        0.07396154702045        0.82384899684285
H            4.87367346267788       -2.78699028850327       -0.10967482678086
H            2.70307249284699       -2.17258444044561        1.23788529916142
H            2.99949013437086       -0.06050251997651       -1.93493369346804
