17
 energy: -25.086654527209 gnorm: 0.000056930968 xtb: 6.7.0 (08769fc)
O            1.60700527685505        0.62553187231207       -0.01280997723336
C            2.83232680193990        0.06629524869682        0.26767987513882
C            4.19780473683921        0.66661652340820        0.22070569007706
C            3.63840485836221        0.16719309039748        1.53726912118772
C            4.25956168613857       -1.20473798920086        1.81590571822815
C            3.56197259604714       -2.13037839706545        0.99996652455013
C            3.35031611986189       -1.30040081036973       -0.21056581265716
C            4.82771885173698       -0.63682234489961       -0.26437500951718
C            5.56859372358744       -1.17367075324384        1.02921080537934
H            0.94287204754023        0.27089108640999        0.59241219635888
H            4.52635737139106        1.67152876304870        0.02346172286512
H            3.38138214694796        0.84552176804940        2.33427663743660
H            3.75097655225874       -3.18957245487232        0.97610822779789
H            2.94039318715508       -1.74399474103962       -1.11020084723505
H            5.37674549678703       -0.62247739431746       -1.20360891093937
H            6.29762781864958       -0.45076110551602        1.39172038182015
H            6.03255072790194       -2.14672236179777        0.89363365674226
