15
 energy: -27.671386280898 gnorm: 0.000096243742 xtb: 6.7.0 (08769fc)
C            1.20859621914802        0.00534032702165       -0.11525350375379
N            2.64475237277827        0.12919649892294       -0.00312404558098
C            3.29888506659158        0.27285687423858        1.14029896136800
N            2.66360933604760        0.32512154597555        2.30530567125149
C            4.69471357280416        0.39709454222355        1.11106820060935
C            5.90056561018888        0.55848496599955        1.08565606670069
C            7.37764334177943        0.17312193965887        1.09026044708790
O            7.37199603409159       -1.06460033874042        1.16795787762985
O            8.25194957288229        1.01755649493963        1.02556779008408
H            0.94676979823238       -0.09620653930898       -1.16424994645980
H            0.71184429265147        0.89354803217692        0.28171460349181
H            0.85206745166628       -0.87920685917093        0.41777944409626
H            3.19836328355957        0.08945090589461       -0.84593979534493
H            1.66222411518917        0.23792509709637        2.36555244077526
H            3.19568993238945        0.42320651307234        3.15389578804482
