15
 energy: -25.306515701336 gnorm: 0.000039223328 xtb: 6.7.0 (08769fc)
C            1.09821715772957        0.05095868630138        0.07071853084624
N            2.53933652524425        0.02841243882639        0.18014438040200
C            3.08721306293657       -1.18428277728012        0.75224304252694
C            4.40594968261997       -0.82007230226388        1.37374319113248
O            5.27656246706719       -1.56048382563929        1.75436143249352
C            4.42364361599405        0.71100535099820        1.45010435275327
O            5.31000892753281        1.38957745441723        1.90282086081345
C            3.11510060674347        1.16570123373114        0.86797216280906
H            0.77946133617984       -0.80158083405166       -0.52600770472590
H            0.80063299290658        0.96435914894442       -0.44078618210353
H            0.59459321920375        0.00981943940743        1.04794207283639
H            3.20118262442974       -1.95799610798096       -0.01191253293828
H            2.45153674813711       -1.60022986138652        1.55348422161237
H            3.24902002745553        2.00747263451599        0.18308930458172
H            2.48811100581955        1.51653932146026        1.70634286696027
