16
 energy: -26.721271369054 gnorm: 0.000050632005 xtb: 6.7.0 (08769fc)
C            1.15100332765728       -0.00414527422642       -0.11436601654163
N            2.59009255486871        0.06119966973493       -0.07146641559248
C            3.19052408124199        0.99731468524977       -0.69147362640573
N            4.57338445629505        1.03475661498431       -0.62942801233000
N            5.34870719484866        1.94196939561941       -1.22475807392504
C            4.75476621889214        2.86493520320041       -1.93532441609022
N            5.50874153992372        3.75811923526753       -2.63925684127026
C            3.31300418779524        2.87497027402499       -2.01711083684261
N            2.57861839519051        2.00422221085559       -1.43164958660182
H            0.84866361645918       -0.88598925980908        0.44994694054881
H            0.77879554508603       -0.08692496648022       -1.14002489858319
H            0.69465771893252        0.88343881727377        0.33440291683714
H            5.05275858181642        0.32245507206687       -0.09557526417262
H            6.48762632213951        3.78365122363334       -2.40228550518749
H            5.08424557264149        4.63976656976094       -2.87401328999453
H            2.80735068621156        3.64658052884386       -2.58824707384831
