12
 energy: -26.810565891565 gnorm: 0.000050000574 xtb: 6.7.0 (08769fc)
C            1.13513999523109       -0.15883165399554        0.02498985812536
O            2.56571219032994       -0.15651062972351        0.09381630939339
C            3.11925436719386       -0.87287843217465        1.05012485278696
O            2.54991768958975       -1.52958370874377        1.88045652139335
C            4.65382491157938       -0.80233339372900        0.96913623231187
O            5.33506773847345       -0.07490179041638        1.63803133578326
C            5.26365751409580       -1.80306953306963       -0.01951095860214
O            4.61485415439676       -2.51280144344267       -0.72957600157517
H            0.87905990705388        0.47533427229045       -0.81919933398639
H            0.71447820327244        0.23690070274137        0.95075703887173
H            0.77206100464909       -1.17626209287417       -0.12828144145263
H            6.36775232413458       -1.79054229686252       -0.01085441304961
