13
 energy: -25.046118734707 gnorm: 0.000089313284 xtb: 6.7.0 (08769fc)
O            1.29597691232795        0.01494448171879        0.68112672606379
C            2.40577352800394        0.05117296814925        0.22521150198163
C            3.26270443501672        1.27269657679105       -0.02868101698050
C            4.52325213613610        0.71422830347486       -0.59809379104737
C            4.51477123064487       -0.62846933264404       -0.70497650046445
C            5.54379339808979       -1.45121800215247       -1.20076837947333
C            6.39673620661326       -2.18767370052305       -1.61665835664887
C            3.23282451926882       -1.17737390909486       -0.21791279690764
O            2.86450922895020       -2.32420810639878       -0.15886187580526
H            3.43315661417805        1.82585866491894        0.89984043586039
H            2.76259621444992        1.96071338087902       -0.71691451729191
H            5.34511394562563        1.34865791000139       -0.88703317297245
H            7.14859163069477       -2.82211923512004       -1.98211825631394
