15
 energy: -27.672359552204 gnorm: 0.000048867312 xtb: 6.7.0 (08769fc)
O            2.47935220734946       -1.01971554145618       -0.40383582322148
C            2.84995617632030        0.06286980865685        0.02379679050987
O            3.08151507257875        1.15216980442061       -0.48432230101468
C            3.08049640589699        0.06506124008161        1.62638150275213
C            3.26894543789336       -1.08169619227508        2.49329241917543
N            4.49560526526832       -0.34835967464693        2.16542684705292
C            4.52926372721318        0.93312614818614        2.62298287264428
N            5.62340688321422        1.63189184516924        2.73777847200100
C            3.12648242254941        1.36609220406280        2.44783660091791
H            3.26679914725101       -2.05288193638275        2.01647612103445
H            2.93955826185501       -1.06472802612368        3.52704542891104
H            6.51782723585106        1.18742478117528        2.57412237484386
H            5.58902934339237        2.63628948366565        2.84184466954641
H            3.01048348986448        2.29026819792224        1.88528428347083
H            2.46893892350208        1.34911785754418        3.31413974137601
