16
 energy: -29.317964666773 gnorm: 0.000042632302 xtb: 6.7.0 (08769fc)
O            1.09825356556861        0.30612683162208       -0.54656067151018
C            2.17300450943422        0.05589419597718       -0.07444473402541
C            2.99773172386427        1.01009115404614        0.74606016387592
N            4.36415674737258        0.55424277440190        0.86111349872660
C            5.18912598083275        1.31332936687759        1.76344203407493
C            6.65016100083743        1.21298249369919        1.43374217559001
O            7.09230469387537        0.75144652434925        0.40648408028693
C            7.58322509676400        1.77914523887657        2.49400905179773
O            7.24521747016951        2.08809500592507        3.60356148035024
H            2.65029621184517       -0.93268204502169       -0.20512668407879
H            2.55528088757701        1.02255970091247        1.75099634230362
H            2.88997922245938        2.02824685413429        0.33261376602499
H            4.81538850255775        0.47750580803516       -0.04637776335551
H            5.03975649870439        0.96851373909763        2.79452673100453
H            4.95800792679317        2.39604968713827        1.76099470594234
H            8.62541996134436        1.87200266992891        2.13945582299204
