16
 energy: -27.075610150405 gnorm: 0.000035418572 xtb: 6.7.0 (08769fc)
C            1.01100736865905       -0.08745763813320        0.09772657045171
N            2.43921313226109       -0.22243242141030        0.01204620832821
C            2.97577826209641       -1.05400562744978       -0.79595693696020
O            4.34016262528665       -1.08765814989855       -0.78340811049193
C            4.99155971891546       -1.94298975047057       -1.61039433183028
C            4.33799128494110       -2.78024617534701       -2.46341099662252
N            4.94336681896867       -3.65463151081630       -3.31077333676377
N            2.96074621129532       -2.77619243691179       -2.50625750479851
C            2.33064689149977       -1.97240993622739       -1.72973822229542
H            0.80943907629718        0.67559763730035        0.84923224298403
H            0.52474780076748       -1.01903475578148        0.40711533830305
H            0.56778879819712        0.23206955849950       -0.85175488566505
H            6.06244506290169       -1.87603917738270       -1.50777880640173
H            5.94025308423772       -3.73014569344610       -3.35122835615464
H            4.36239503736286       -4.22426984479624       -3.89542589379963
H            1.25068882631242       -1.98729407772844       -1.78135297828331
