16
 energy: -27.433527666620 gnorm: 0.000043285303 xtb: 6.7.0 (08769fc)
O            1.33971195622496       -0.61545550478223        0.49723034650235
C            2.34497485959548       -0.07594104246639        0.06139462906866
C            3.02389343415269        1.00870245534195        0.70311297607203
C            4.14822739176893        1.67830049561382        0.28030972060402
N            4.51742042955983        2.62530749448131        1.17290084855573
C            3.57222973056644        2.74521655392431        2.26837075632522
C            2.58091517637957        1.59185134816669        2.02590870532889
C            4.94723798546465        1.46662910639842       -0.92819328851014
O            4.71487018356837        0.68147300051024       -1.81363292882628
H            2.79436242618757       -0.40947717553572       -0.88894361840812
H            5.22581877494787        3.31760117029633        1.00165160012722
H            3.07922571391205        3.72278609974072        2.23994816031674
H            4.09539976383425        2.65046792014771        3.22370353085601
H            1.54454411401577        1.92689461222059        1.96910520339519
H            2.63041162723347        0.82893444820137        2.80495179275291
H            5.83978643258811        2.12301901774088       -0.97613843416043
