16
 energy: -28.948041771561 gnorm: 0.000070112835 xtb: 6.7.0 (08769fc)
N            1.23106411348324       -0.32174688875741        0.38283413326194
C            2.47953763791242       -0.07127351231279       -0.01332000920120
N            3.23984702350407        0.76358819164054        0.69350702448214
C            3.04642547848783       -0.71600913846830       -1.14883203946892
C            2.26966428801894       -1.80958609821154       -1.89833948138721
C            1.15899204588764       -1.14219527329827       -2.61542833616850
O            0.06146903450248       -0.93108372963747       -2.13293153822809
N            4.26760539621755       -0.34979427527854       -1.46349618343486
O            4.87665317341096       -0.83618982576910       -2.46192820606506
H            0.84430433861323        0.20096032736416        1.15246939539402
H            0.57880111723326       -0.77415809160006       -0.24844254874507
H            2.88583669252957        1.25790403270339        1.49469135156276
H            4.18857426418685        0.89745143991098        0.38051099759250
H            1.90030848758794       -2.54533349331537       -1.18127247950938
H            2.98878952384127       -2.25674664759490       -2.58819755321542
H            1.40883738458277       -0.75956701737533       -3.61919452686965
