15
 energy: -27.348703742085 gnorm: 0.000073598819 xtb: 6.7.0 (08769fc)
N            1.01937071289945       -1.20397046753424       -1.90272047540275
C            2.36080567841740       -1.16559060853782       -1.89803886031185
N            3.05919858795102       -0.88594892470921       -0.81734999584705
C            4.42499116338500       -0.82866808250630       -0.73427521424621
C            5.27899326480963       -0.55396330679445        0.30860540968904
N            6.54515212937150       -0.61973960595931       -0.10462370818390
C            6.49189708098456       -0.93935877013128       -1.42194420414289
N            7.43088352436979       -1.11977855058972       -2.27244260603670
O            5.18037334763150       -1.07983171046192       -1.85796577387154
H            0.52585675475307       -1.42111571715672       -2.74856878588486
H            0.49325242838816       -1.01548063080713       -1.06610408169343
H            2.90282395527914       -1.37033881893449       -2.80744557098926
H            2.57343961991577       -0.68927754550155        0.05231426202348
H            5.02720074706301       -0.31533888651303        1.32497085293904
H            8.33937100478100       -0.99047837386284       -1.83715124804112
