14
 energy: -27.560968655076 gnorm: 0.000072788317 xtb: 6.7.0 (08769fc)
N            0.99789243796478       -0.03883997390967       -0.12191237497435
C            2.36687506235943       -0.15920868833176       -0.07739346597515
C            3.04507597349767       -1.35035394112178       -0.08659343182401
N            2.37731316194542       -2.56768891507330       -0.07680098697690
C            4.50288279300013       -1.28488240045318       -0.00660865420473
N            5.33974514326940       -2.23077814297737        0.18408495783071
N            5.04209376124027       -0.01465170175027       -0.18355984414500
N            4.41791902895264        1.02085630792288       -0.24477187604824
O            3.02832991425235        1.02277437361183       -0.10627689259055
H            0.48446633776858       -0.72381722682608        0.41270112379281
H            0.67020963999882        0.90843237766262        0.00019212561213
H            1.50484440772064       -2.57373371907792       -0.58531519623075
H            2.96655134494732       -3.35331421343789       -0.31777101077718
H            4.91512099308256       -3.14397413623814        0.32353552651116
