19
 energy: -29.800031007290 gnorm: 0.000052175173 xtb: 6.7.0 (08769fc)
C            3.11594041765432        1.20151808932786        0.18728575032193
N            2.45067793083533       -0.02615559130406       -0.18051462222764
C            3.11841213690526       -1.16486644604475       -0.39637179663803
N            4.39036958182744       -1.22890888919445       -0.35986053356239
C            5.08297366709629       -2.46024460306072       -0.63165235180758
C            6.07952815346761       -2.74716807707863        0.50027514098239
C            7.09219782597222       -1.62164339412040        0.70450813605613
O            6.61944525448663       -0.39741441687984        0.56072740418972
O            8.24133986382961       -1.83883235565832        1.00857278483095
H            2.44548338140623        2.03882436098900        0.00994327326405
H            4.01077082536630        1.31723942855553       -0.42293962110055
H            3.41583331874598        1.19602059809461        1.23885634091022
H            1.44864265053430       -0.06175469211736       -0.09960640488114
H            2.48998822857744       -2.03135530457960       -0.63915892938961
H            5.65736171488757       -0.45838807660239        0.22345046348329
H            5.63645579926775       -2.34320835165786       -1.57204309175896
H            4.39387687461273       -3.31205145267336       -0.74494953698002
H            6.62387908642959       -3.67233142522918        0.31067610665738
H            5.53647328809698       -2.85786940076634        1.44395148764992
