15
 energy: -25.324223805374 gnorm: 0.000053590973 xtb: 6.7.0 (08769fc)
N            1.01906741979362        0.12515860425389        0.03105059463394
C            2.52602050485737        0.18309302452337       -0.11722246441179
C            3.02630181908206        1.35406646579175        0.56003704661821
C            3.34920320095556        2.35588903441729        1.15281204474465
C            3.71375058499059        3.53816084245530        1.80156659746388
N            4.34214576497892        3.59327826342248        3.00392181306369
C            4.43863367731207        4.91119950891750        3.17301128971051
N            3.91634394695457        5.62996428254710        2.18002206546944
N            3.44824695173552        4.75321079062153        1.29376393094851
H            0.61966310240133       -0.69071145749850       -0.44841885059729
H            0.61455758953381        0.98788273693305       -0.35597253672207
H            0.78092216128594        0.09182333358486        1.03068513442121
H            2.76033044363044        0.22282399199286       -1.18426923398071
H            2.95003952858209       -0.72601695877945        0.31646517839570
H            4.89606330390578        5.36323753681712        4.03830739024280
