17
 energy: -28.771051288930 gnorm: 0.000034601902 xtb: 6.7.0 (08769fc)
O            2.13020537876994       -0.75018395155742       -1.11078003256684
C            2.45984853000544        0.03211456525926       -0.21842247230786
O            2.39667017404419        1.26025967331601       -0.14993573188021
C            3.10647484144500       -0.68067566560957        1.09468851302769
C            2.55680760793613       -2.08296267942212        1.27828970603471
N            3.06403598115615       -2.64502083151959        2.52185212290263
C            3.43178994531538       -1.88710205372496        3.52209842098613
N            3.32298233644759       -0.58394911625252        3.51161149726494
C            2.83498238517753        0.13621151110023        2.34423707914490
H            4.18522322124754       -0.72858813676114        0.91290487286322
H            2.85220369041960       -2.71326615513066        0.43950115373169
H            1.46273151972418       -2.05671353135078        1.30135816804100
H            3.17169628398168       -3.64731627939809        2.58449671491810
H            3.83837218926936       -2.36277818262705        4.40610220531539
H            3.62365600820945       -0.04769702482431        4.31295250818106
H            3.33038283694653        1.10448152472977        2.27261388437957
H            1.76093706990425        0.32194633377297        2.44487138996390
