18
 energy: -24.465906137051 gnorm: 0.000033741548 xtb: 6.7.0 (08769fc)
C            1.33104062964674       -0.75899394209812        0.08324986576179
C            2.28124506509320       -1.89897067701218       -0.27366824991014
C            3.48716500994182       -1.00320819794253        0.10168243408805
C            2.49776932694964        0.10612085800020       -0.36500812294417
N            2.67342259179717       -0.11977556300159       -1.80199441975556
C            4.17288822769921        0.10358204060160       -1.90392343390087
C            4.50045546388685       -1.11873201093354       -1.05134873397611
C            3.95006547698662       -2.07044760303800       -1.95157891523112
C            2.52873360321093       -1.69816840096997       -1.76506234095114
H            1.13270253148594       -0.67726224020807        1.14925374548333
H            0.40882171968527       -0.68599916069968       -0.49093274515809
H            2.14106472053813       -2.91788659540817        0.07460502889610
H            3.86002481353813       -1.00050527934177        1.11917656266060
H            2.59377245405750        1.14904304668884       -0.07736989835092
H            4.42467768009175        1.06965784086320       -1.47000283735200
H            4.51691669686416        0.05223931106492       -2.93353921102909
H            4.40019903790264       -2.39435420678460       -2.87256799602509
H            1.78728495062430       -2.04246921978054       -2.47883073230557
