10
 energy: -25.727392783353 gnorm: 0.000086139174 xtb: 6.7.0 (08769fc)
O            2.18468489969230        0.92690011327384       -0.72329896580127
C            2.17790562912585        0.02382219219896        0.05342256121728
C            2.97551855935042       -0.05974548018276        1.35057590942016
O            2.51098388373558        0.00449450428236        2.45253999643060
C            4.46671709679679       -0.25044121649429        1.03781781296555
O            4.93647208766212       -1.21935282146123        0.51358416006330
C            5.25678222958822        0.96844340686957        1.50261205060060
O            5.23616405336994        2.05315612213928        1.01087696568616
H            1.59684702091283       -0.90791608670340       -0.10048116799018
H            5.84702453976592        0.72097926607770        2.40800067740775
