16
 energy: -25.417970040679 gnorm: 0.000059269481 xtb: 6.7.0 (08769fc)
O            3.11879059696926       -1.20832327775022        1.00173032712003
N            4.02793161728858       -1.71104706018868        1.94409469948008
C            5.02398752232887       -0.96879293472616        2.23903514751385
C            5.97339166451571       -1.47026509155576        3.21034255979499
C            7.01634183815622       -0.69804386470195        3.52334260127202
C            7.17951761434426        0.62164776150671        2.88835731539128
C            6.73406659588933        0.81354735556418        1.45872175248673
C            5.95344154007005        1.43032116456143        2.53953398115158
C            5.30936081424218        0.37268120271242        1.67957526988278
H            2.45828860624815       -1.91230292756967        0.92726534711281
H            5.79799530016011       -2.44347523013203        3.63837780787223
H            7.76273379291913       -1.00821349857892        4.23888764620685
H            8.05563127287136        1.18031799168676        3.20224340695374
H            7.24424607757848        1.16248764747156        0.58650060318942
H            5.64904579901280        2.42275585090780        2.79501139058226
H            4.57292934740540        0.70941491079284        0.95555014398928
