15
 energy: -26.023224226585 gnorm: 0.000061823241 xtb: 6.7.0 (08769fc)
O            1.75793023951212       -0.44291251001985        0.03124314998877
C            3.00679718103020        0.02983916824206        0.20974808491558
C            4.03024068239903       -0.36791645983470        1.19048229757531
C            4.31673360955884       -0.86317386268349       -0.22913766475360
C            4.29685275773791        0.56109894290528       -1.27605891807256
C            5.40440819840189        0.19768476194581       -0.39002151307688
C            5.03261769380765        0.79680626178652        1.00794640678848
O            4.25709866171181        1.92871905180995        0.71918884650450
C            3.44236176685662        1.38098961569587       -0.30738406340220
H            1.69335781140349       -1.37401043708477        0.28501021726489
H            3.86242963111582       -0.97923324602352        2.05745604735309
H            4.25331981028399       -1.85401903537362       -0.63988456148563
H            6.39876140746438       -0.05429873646961       -0.70906363672813
H            5.78554581659157        0.99883338052567        1.75927170555229
H            2.69529473212469        2.07050310457843       -0.67002639842395
