13
 energy: -27.004060180989 gnorm: 0.000083105450 xtb: 6.7.0 (08769fc)
O            0.93020286431300       -0.00582929900525        0.00946154780594
C            2.13287935017731        0.04769182329057        0.06555561423628
C            3.00496663668284        1.22564148622775        0.12266245088800
C            4.29710738594240        0.87687810799307        0.10562803138512
C            4.47146903746033       -0.58965281105080        0.00863024936266
C            5.56876392988508       -1.24523370522283       -0.74223273297192
O            5.54298678719455       -1.22823202787636        0.64666164665122
C            3.08209170179232       -1.17507207176280        0.06173950848794
O            2.76962038185466       -2.33243795709833        0.08459817205084
H            2.61337975150884        2.22592530243751        0.18417640650155
H            5.14373974287988        1.54003148326627        0.17251402120027
H            6.31698905335380       -0.61979019665906       -1.21700044763074
H            5.36750337695501       -2.20147013453974       -1.21260446796717
