16
 energy: -26.716707211537 gnorm: 0.000067948922 xtb: 6.7.0 (08769fc)
C            1.16609039725352        0.03263249203574        0.36635348527418
N            2.46860890578552        0.29494639703288       -0.19221260956556
C            3.13944699583549        1.43533624964659        0.07697898663153
N            2.60407444161066        2.33376521814564        0.86602078658133
N            3.33151379238900        3.44527643860387        1.08868740339449
C            4.58751688760844        3.71914910664446        0.55931761378250
N            5.25790520868853        4.77512130923538        0.78118226429616
N            5.11859410115688        2.74817284787414       -0.26669757063909
C            4.44603044850088        1.68366950140798       -0.49294032658328
H            0.81456609809455       -0.93455773672794        0.01965704292423
H            0.46112922930641        0.80979366616606        0.06182376154268
H            1.21615065979443        0.03500190592538        1.45772788404511
H            2.89573158077565       -0.38026533235228       -0.80096787919944
H            2.88187218198354        4.11295902996321        1.70317130940273
H            4.79437678139725        5.43600413218028        1.39883053909111
H            4.90052228981925        0.94747477421864       -1.14691269097870
