14
 energy: -26.044346351471 gnorm: 0.000022174511 xtb: 6.7.0 (08769fc)
N            0.90798024935802        0.04682875225389       -0.25640883150069
C            2.16000030824744        0.05438936151189       -0.07307246939357
N            2.95857507624867        1.20951046048688       -0.07747141907017
C            4.28928149595749        1.17709403056788        0.12285429314199
C            4.90580591757987       -0.02299274569495        0.34113134526026
N            4.21467373634470       -1.17519123672358        0.36052850925480
C            2.93043010416562       -1.17054109044213        0.17003272351694
C            2.20186968630022       -2.44987280887897        0.19650297717976
O            2.69891667404002       -3.53343242355424        0.38508008923265
H            0.48577453791597        0.95815074285544       -0.41452232502796
H            2.49172098827596        2.09542363193499       -0.24037813883102
H            4.82163894868563        2.11628631765248        0.10204437775234
H            5.96780693697660       -0.10208821290542        0.50674722658206
H            1.11967533990378       -2.32264477906416        0.02148164190261
