12
 energy: -26.946730022799 gnorm: 0.000131902221 xtb: 6.7.0 (08769fc)
O            1.32312140505582       -0.21659758876737       -0.66495909147198
C            2.26959465327952        0.00155077648140        0.04073556369102
C            2.97142653409708       -1.01667690549307        0.86358755163266
N            2.56694225738315       -2.24985811800129        0.84901166160080
C            3.22463743542835       -3.14784983878650        1.60742819528885
N            4.24348793280192       -2.87600090051155        2.36340631936940
N            4.66766891484821       -1.63207112213371        2.39135470466140
C            4.11990809362830       -0.57309055830715        1.67830980389861
O            4.57492789317911        0.54856758427672        1.76007156177255
H            2.71683456071055        1.00618895947141        0.14454939570989
H            2.87708062800877       -4.16800728130792        1.58380502979501
H            5.46873969157924       -1.45119500692101        2.99510930405178
