14
 energy: -27.970235502124 gnorm: 0.000054142458 xtb: 6.7.0 (08769fc)
C            1.06457383224227       -0.06754010913959       -0.05786514616227
N            2.50659574402152       -0.09839870994120       -0.05120613436543
C            3.16644674292841        0.68017541765247       -0.77243510367455
N            4.54668264643166        0.74158451077147       -0.84876793886509
C            4.84663912061207        1.72262973095235       -1.75070786212846
C            6.20854914992358        2.11802282165584       -2.13228324807181
O            7.20082916914583        1.61020912743482       -1.68155859554567
N            3.78176952670804        2.27011975748359       -2.23530201233121
O            2.70966686227133        1.65277504721433       -1.65465521497361
H            0.72478972272280       -0.82885525904566        0.64131401437803
H            0.66639164351263       -0.28268037506998       -1.05244777403913
H            0.68613004755660        0.90879023308212        0.25451528391455
H            5.18655732748167        0.16489913398580       -0.33128873204665
H            6.22602846444159        2.92971867296366       -2.87593153608871
