19
 energy: -29.692771086395 gnorm: 0.000036930113 xtb: 6.7.0 (08769fc)
O            3.24480230202839       -1.09409202783324       -0.96288201249850
C            2.24874614945519       -0.86262944145548        0.00699387785964
C            2.87057813922833       -0.42644965884414        1.29868316159264
N            2.15847817467979        0.19591491153863        2.17716720705457
O            0.93473257390656        0.52229899777194        2.09666871442905
C            4.29220235136635       -0.72924878984351        1.63592954447092
C            4.55755455016357       -2.07062434380723        2.36461048182670
C            5.30384450521408       -1.24179641082639        3.41675707666614
N            4.75604426886374       -0.01219185794451        2.83053329987668
H            2.81523910775031       -1.35398977135931       -1.78515394687349
H            1.65848761852515       -1.77694924317536        0.18642288108524
H            1.54588401719314       -0.07529462351192       -0.30718244970019
H            4.90736827133813       -0.61418625744738        0.73657148046975
H            5.14672997224644       -2.79600085243515        1.81204502150925
H            3.65074589751424       -2.53799626539586        2.73900876210996
H            6.39154860666736       -1.33613078016307        3.34922220500312
H            4.99512538835201       -1.37991697031747        4.45481095351171
H            5.41060915146567        0.74499962221176        2.67466829542048
H            2.67755895404160        0.46186376283768        3.03506544618624
