19
 energy: -24.213950168797 gnorm: 0.000103533252 xtb: 6.7.0 (08769fc)
C            1.66651614426127        0.90197436225749       -0.01228472588142
C            2.69457848908252        1.86416334525029       -0.59472461418902
C            3.82674093810713        0.98948831390409        0.00998801054091
C            2.77779936374723       -0.12904464174948       -0.19349207423962
C            3.03017454606770       -0.19513337541613       -1.69954383952458
C            4.50439101890078       -0.35215432467351       -1.79401425964766
C            4.89164210283314        0.81140191804721       -1.08439734382784
C            4.49501266059951        1.82861837102201       -2.14961524717764
C            2.97543050555015        1.39974652268328       -2.01886869125041
H            0.74580123472223        0.74494682540371       -0.57455552307012
H            1.44071210654287        1.10313293137966        1.03293351198489
H            2.63941698695445        2.93619856193054       -0.42856876708016
H            4.16857280205842        1.21265053225159        1.01479119047358
H            2.78990967398488       -1.07124576560269        0.34751676176615
H            2.39292876453221       -0.83708100337140       -2.30122560885030
H            5.03302589960129       -0.77925677830407       -2.62808619705008
H            4.92858671417046        1.64146845902558       -3.12855479122063
H            4.63830211179085        2.87235171650066       -1.87225004904406
H            2.28817793649289        1.73713402946116       -2.79454774271197
