15
 energy: -27.358272794942 gnorm: 0.000045567120 xtb: 6.7.0 (08769fc)
C            0.99279345670652       -0.05405815502821        0.03823937171810
N            2.41989685459325        0.12041288943464       -0.02577466016026
C            2.92921027591499        1.21341549016949       -0.44667722290971
N            4.30693347278627        1.31611730017935       -0.48320931723292
N            4.98005928509046        2.39092627150612       -0.89657643882521
C            4.29198402567757        3.41494905893595       -1.29329830816552
O            4.93163671416784        4.50810885016230       -1.71395737645709
N            2.92571786825663        3.47823210592426       -1.32096440162050
C            2.28435530335459        2.44017691235425       -0.92187993856785
H            0.81076427837077       -1.05625476990320        0.42535653445960
H            0.52207933973221        0.03053056306364       -0.94713502717522
H            0.51796376252777        0.67070336266096        0.70827218582515
H            4.86677846989316        0.52993635345122       -0.17834322836877
H            5.88626494726810        4.35555713690012       -1.65299603202996
H            1.20410194565988        2.49703663018912       -0.94651614048987
