11
 energy: -27.219770129443 gnorm: 0.000026478791 xtb: 6.7.0 (08769fc)
N            1.17923951753618        0.06397668717605        0.01146512277289
C            2.50918905251435        0.07980070386257        0.01858315529178
N            3.28156681403103        1.11944108165884        0.02294081541129
C            4.54459891654340        0.58445289738419        0.02914236133145
C            4.43919633898591       -0.80782285130943        0.02806598847613
O            5.62467393159838       -1.35545409490431        0.03388514065991
N            6.51440786674481       -0.20407174567003        0.03887444038091
N            5.86011674523978        0.84988585623005        0.03596625729137
O            3.15959339429602       -1.17087302032625        0.02141387269864
H            0.68943993560938        0.94027781365862        0.00995968869820
H            0.68680748690074       -0.81098332776031        0.00941315698744
