10
 energy: -23.490111849798 gnorm: 0.000008878598 xtb: 6.7.0 (08769fc)
O            1.43862356633500       -0.88289845933262       -0.00532994559108
C            2.01169176224094        0.37391192881616       -0.00201407579061
C            1.09886718013187        1.37837988888100        0.00252243868270
C           -0.16147759766316        0.71736429375936        0.00210768281917
C            0.14344513084833       -0.65028658286359       -0.00278188211093
O           -0.95790966645927       -1.36350352855967       -0.00357296237757
N           -2.00095535784956       -0.35496358797169        0.00116676580888
N           -1.51186137598618        0.77650380998549        0.00418993590307
H            3.08332149987383        0.39104010559409       -0.00343070050844
H            1.29112485852819        2.43022213169147        0.00568274316483
