15
 energy: -27.712651980219 gnorm: 0.000059721022 xtb: 6.7.0 (08769fc)
C            3.51377287781431       -0.96117269205187        0.56027337559012
O            2.80327618179992        0.24444384086637        0.31403902381129
C            3.22902460786211        0.98127318028247       -0.73122016276716
C            2.61022363588147        2.15007790130338       -1.04194359027643
O            3.01010909533327        2.91239636497322       -2.08074522437075
C            4.07959360801644        2.49741147868405       -2.85452793744660
N            4.50396387799132        3.16355803823585       -3.84017014863692
C            4.68969400120902        1.23985694645611       -2.46235443202899
N            4.29254941766474        0.53071000704191       -1.46992713212564
H            3.03242691984560       -1.40730933527188        1.42757084577862
H            4.56521994708326       -0.75666651017052        0.77301560393646
H            3.44853910407437       -1.63335001269908       -0.29792944775812
H            1.77115639110119        2.55796332216035       -0.50206801781426
H            3.99648213430183        4.02569393109222       -4.01652878405545
H            5.52726820002114        0.88637353909745       -3.04502397183618
