14
 energy: -27.925576916602 gnorm: 0.000051949783 xtb: 6.7.0 (08769fc)
N            2.62985723628673        0.85523453235762       -0.73851133354568
C            2.18223553104959       -0.00173473433723        0.07442364862236
N            2.99443535641842       -0.80125889567736        0.83122996169895
C            4.38055774909971       -0.77731311082087        0.80704286581474
N            5.12016146082634       -0.03450800473091        0.10322587068723
C            5.09819014171731       -1.74110978324886        1.71828658716010
O            6.30224423683614       -1.79516468924503        1.77179331350110
C            4.31634546744367       -2.70223511339149        2.62270550942087
O            3.12327696154261       -2.80116250000118        2.71532295474662
H            1.92376357045536        1.38342761094604       -1.23840276329796
H            1.12023770691476       -0.20490971723578        0.26803826956657
H            2.54200671696821       -1.46030662264451        1.45499490642858
H            4.60836941255417        0.60614143044607       -0.50311576087363
H            5.00633845188696       -3.32975040241650        3.21370597007015
