14
 energy: -26.276677978649 gnorm: 0.000031573033 xtb: 6.7.0 (08769fc)
N            1.14801122645069       -0.33558803239094        0.11845873228248
C            2.63442880478134       -0.16570563406703       -0.08046755004990
C            3.19436194283727       -1.37286159513507       -0.63750940282685
C            3.60698435355943       -2.41095379713180       -1.10367235926204
C            4.05876789991721       -3.57448936344006       -1.62565209897398
C            4.48766331748111       -4.61042435967209       -2.09395268866900
C            4.71829855017185       -5.98473572915298       -2.66431549406392
O            5.86864652447326       -6.28445508973103       -3.00073697270508
O            3.65473515882622       -6.63047728400352       -2.70845960878042
H            0.72486231643883        0.51329769906709        0.51361469570637
H            0.97410749140837       -1.12927077835814        0.74967449093809
H            0.70285551306354       -0.55056411980060       -0.78389932436830
H            3.09061949268379        0.05459457842260        0.88897760751871
H            2.79921740790708        0.67856350539371       -0.75611002674620
