17
 energy: -23.138717912565 gnorm: 0.000067845621 xtb: 6.7.0 (08769fc)
C            2.10205077355800        1.09909462267605        0.27962998867925
C            3.39892878964737        1.70193260705938       -0.31564166917249
C            4.25822950467857        0.96748467682758        0.70831481492229
C            5.45830408272020        0.32959201415885        0.13281903266764
C            4.90940230726909       -0.32903751698616       -0.95135731322537
C            4.46290959476772       -1.69661738888798       -0.59756218408073
C            3.34022384773912       -1.53593510027198        0.15055375554684
C            3.05652000365327       -0.08928452580229        0.19933413967657
C            3.58589080727278        0.42257306704389       -1.14553589711689
H            1.23706525895454        1.05699076308147       -0.38085669832156
H            1.81563509573216        1.43950945079695        1.27414300038486
H            3.54667277320926        2.72584316101718       -0.64899729380772
H            4.29490219195864        1.29730555312880        1.74187100468388
H            6.33368716742303        0.04823690986653        0.68745809947657
H            5.02618178559716       -2.60156779148723       -0.73292259616850
H            2.83860419694851       -2.31200017023935        0.70001341910156
H            3.01733181887055        0.24661966801831       -2.05427360324619
