12
 energy: -27.312401613255 gnorm: 0.000049623600 xtb: 6.7.0 (08769fc)
O            2.58053915630606       -0.40892568261789       -1.00361145935587
C            2.22307498398788        0.15119096176678       -0.00061574027907
C            2.96951805355456        1.25514589322008        0.62648873799678
C            2.65688779958747        1.95094196784335        1.74874872109932
C            3.70401597548281        2.94599805447085        1.96500800173236
O            3.82442968169130        3.76877847577866        2.83746370186573
C            4.69611338672798        2.72588610379263        0.77878422875618
O            5.71487867965373        3.31574620416402        0.53562507725730
N            4.15021320887481        1.69756542826176        0.05796310282046
H            1.29822700089104       -0.12062605165656        0.53414839565153
H            1.80154537457237        1.81535534209971        2.38157031664381
H            4.53421669866999        1.29238330287659       -0.78509308418853
