12
 energy: -26.932596297312 gnorm: 0.000129039603 xtb: 6.7.0 (08769fc)
N            1.15023754523848        0.10238179924283        0.16081093442889
C            2.50369819526545        0.00420329520577        0.05120833275747
C            3.33176060611033       -1.08377386717429        0.02824281258201
C            4.64579977371497       -0.53430711692532       -0.00248734928170
C            4.47316244162413        0.85107824170123        0.00506074898239
O            5.63668173775171        1.46058935628083       -0.02242222361254
N            6.57768398608496        0.36826949965151       -0.04913520271549
N            5.98219850083237       -0.72136655832068       -0.03709871731949
O            3.19790037365286        1.21250709597590        0.03286072824736
H            0.62242126924188       -0.70100608265707       -0.13849559323763
H            0.75758228854876        0.99938247166014       -0.07810307089284
H            3.04657328193410       -2.11263813464085        0.03928860006155
