14
 energy: -28.019681704342 gnorm: 0.000053632874 xtb: 6.7.0 (08769fc)
N            1.15834155618397       -0.41041484659746       -0.19326216054829
C            2.47522293312526       -0.40295631772726       -0.26560046272861
N            3.17075397898845        0.51768741754657       -0.87637292883203
C            4.56447658963888        0.47926789640601       -0.92362506036854
C            5.41187614001874        1.36323334382079       -1.52071455615971
O            6.67505186609115        0.92028021192336       -1.30796251615881
C            6.53300828899084       -0.28460851648658       -0.54603339327444
O            7.52597005731059       -0.90555175927674       -0.20760246397527
N            5.24907942982688       -0.53295591405438       -0.32478971409037
H            0.68064107471237       -1.15081627588402        0.29280965665134
H            0.60529147059429        0.31860439981234       -0.62008057651430
H            3.05832403053575       -1.19135571414471        0.19698714649204
H            2.72138173439202        1.29991392103227       -1.34248911375273
H            5.27483084959081        2.26611215362979       -2.07919385674029
