11
 energy: -27.530358359230 gnorm: 0.000124585575 xtb: 6.7.0 (08769fc)
O            0.98814522443401        0.33816782228584        0.35288479838160
C            2.09028808601307        0.06216451004776       -0.02253621169547
C            2.94116053350179        0.96187792699017       -0.86078368981826
N            2.61518596944521        2.19658324736596       -1.02692883427316
C            3.44772608134976        2.96771151705143       -1.78574403546968
N            4.54328676622689        2.58051667047436       -2.32161561038671
O            4.92723237919119        1.29587940792927       -2.16878879219675
C            4.17374118387248        0.38878056718254       -1.46735927305579
O            4.54476064858421       -0.74911929900768       -1.38422893248814
H            2.58661318323429       -0.89673717873277        0.20542634707460
H            3.16276994414728        3.99795480841312       -1.93350576607225
