17
 energy: -29.063276404892 gnorm: 0.000068406757 xtb: 6.7.0 (08769fc)
C            0.94741955257396        0.06193940059250        0.02087578202168
C            2.46760253426874        0.14802741102711        0.06722021126412
C            3.09150951190923       -1.23654537503498        0.24281769121725
C            4.59257141492933       -1.19355265497337        0.27555236976195
O            5.28690008022879       -0.22008980301483        0.17510929877753
C            5.15215193527288       -2.62182154948674        0.39081117457933
O            5.27493358252112       -3.22875662856815        1.41992599657490
C            5.47693183887154       -3.14944405817600       -0.99113431444675
O            4.67527330473917       -3.31688458696645       -1.86600151480049
H            0.52055204934094        1.05367539989742       -0.10385674520075
H            0.55836819222993       -0.36585727571410        0.94232856746943
H            0.62346170279832       -0.55866977874454       -0.81178941246438
H            2.78166964668950        0.78768320117752        0.89399078530221
H            2.84496801514346        0.59296414437951       -0.85536567467108
H            2.79638018680291       -1.90137746531157       -0.57717114774417
H            2.74880432788192       -1.70442566285151        1.17149550610736
H            6.56343212379815       -3.30283471823187       -1.13797857374816
