16
 energy: -23.411910475771 gnorm: 0.000058200075 xtb: 6.7.0 (08769fc)
C            1.27563228925498       -0.17047815736030        0.03813332739985
C            2.48130970948973       -0.13624734895792        0.00630352545306
C            3.86469525664584       -0.03903413264403       -0.04213506987430
C            4.72417113870916       -0.78049623066449       -0.82411153598275
C            4.88247143945121       -2.20670020027275       -0.34243702766212
C            6.01483446417989       -1.59248974021162        0.54309273620982
C            6.17108986893252       -0.45130093505892       -0.37979623088709
N            5.94226625984899       -0.19396784587644        1.01113225423881
C            4.68896482447417        0.55896860066182        1.08586789385424
H            0.22799173154968       -0.21601817746239        0.06494210445786
H            5.33231085330128       -2.90376923095304       -1.04915794225113
H            4.00630080209410       -2.65157864666453        0.12925417752745
H            6.77895113167639       -2.18424156477054        1.02304471573696
H            7.00312782283968       -0.06683110925416       -0.94016539169532
H            4.16039109605763        0.39875713351314        2.02932808645598
H            4.94902131148337        1.61905758596847        0.99946437701323
