16
 energy: -25.018214018413 gnorm: 0.000064039930 xtb: 6.7.0 (08769fc)
C            2.25663966774073       -0.36977618705001       -1.40258802288152
N            3.32534440034575       -0.69115172337196       -2.28546977786680
C            4.43709084831022       -1.11019659664790       -1.84115378964312
C            5.51967111315809       -1.45566668565722       -2.75488871037881
C            6.84811268604381       -1.64045988524488       -2.47650794733247
N            7.62755970162397       -1.39348329805934       -1.35707887897916
N            7.25204968393382       -1.44291227775552       -0.17646488126440
C            5.93223530961495       -1.94501958431332       -0.19664233046573
C            4.96358467208374       -1.04014725335393       -0.45065245678841
H            2.07702674285620        0.70668277732541       -1.45091620425097
H            2.44560943088601       -0.66562865480832       -0.36178884273711
H            1.35844841146499       -0.86755970197827       -1.77212312719322
H            5.22992961958773       -1.49684276930004       -3.79623108526223
H            7.49614915689759       -1.84820040570824       -3.32096552382283
H            5.84547600689998       -2.94462257052001       -0.62465134904682
H            5.01077254855236       -0.04557518355625       -0.02414707208612
