14
 energy: -27.989420518684 gnorm: 0.000058835876 xtb: 6.7.0 (08769fc)
N            1.10672510102708       -0.04825810513058       -0.19397997130634
C            2.50831568283574       -0.02656696468339       -0.11518712928943
C            3.23687302458871       -1.18613226284409       -0.12327916509003
O            2.71178449275377       -2.42415260491324       -0.17188374672614
O            4.57446929471153       -1.18285761687000       -0.07079820497771
C            5.25873005576373        0.03624427374917       -0.05819924310889
N            6.51792680949753        0.08577579711178       -0.00007981936204
C            4.42635659170296        1.21595871624546       -0.11282459838153
N            3.13907573661277        1.17975941574088       -0.12704706448901
H            0.66096697551093       -0.51455788638549        0.58827558530009
H            0.75714452060643        0.89889791975595       -0.27325943007996
H            1.77095952301885       -2.36009956541534       -0.39688326143768
H            6.97581467705943       -0.81988356276642        0.03230239936668
H            4.91564751431054        2.17682244640530       -0.13767635041799
