14
 energy: -26.049000047999 gnorm: 0.000028824385 xtb: 6.7.0 (08769fc)
N            0.93534749708191        0.04048910269060       -0.07320745415445
C            2.20082779363493       -0.00358370252614       -0.06992813151793
N            2.98621072245713       -1.15615352799687       -0.06785754108745
C            4.34815849903640       -1.11528557368526       -0.06431711037864
C            5.05413860407453       -2.40019033170666       -0.06249266258427
O            4.49209519442718       -3.47073540911430       -0.06394816518150
C            4.97844986587699        0.10011419554918       -0.06270422760465
N            4.28053576190908        1.26502466929272       -0.06454325416561
C            2.99587172182738        1.21906353347573       -0.06785354210871
H            0.47030049764616       -0.86373932459683       -0.07431384983904
H            2.54845632598803       -2.07328975900839       -0.06898370715220
H            6.15317936394925       -2.31519841073185       -0.05965054173528
H            6.05307272466084        0.18975990891008       -0.05992135362546
H            2.45379542743019        2.15394462944799       -0.06942845886481
