17
 energy: -28.661024272703 gnorm: 0.000049693935 xtb: 6.7.0 (08769fc)
O            1.15495198049044        1.28198032618684        1.67296219430968
N            2.38020750938932        1.05236608562700        1.64777554189805
C            3.04661720210459        0.18610101796913        0.93263470882617
C            2.38728414487637       -0.70541872003861       -0.00380038960191
O            2.95288860598286       -1.51744267165405       -0.70303162433129
C            4.52792564256016        0.14250471103797        1.16312107651808
C            5.01381918434487       -0.79595591415355        2.29437239175995
C            5.72099159516028        0.43148004656032        2.88310084974719
N            4.99751421729102        1.29625531684690        1.93998620223672
H            1.29103063652501       -0.57467154059412       -0.03414971214965
H            5.03663716993817       -0.04516579193926        0.21071388801620
H            5.65157371407816       -1.61523899109499        1.97757903737117
H            4.20525076335803       -1.17983745316421        2.91098169550319
H            6.80514701111439        0.41367140613361        2.74658099185532
H            5.49325909273237        0.67167867108569        3.92315391771916
H            5.55136011664031        1.98224109726213        1.44136288314024
H            3.01137141341377        1.62737240392910        2.25348634718170
