15
 energy: -27.711545785102 gnorm: 0.000038389903 xtb: 6.7.0 (08769fc)
C            0.99920357608851       -0.10027999266059        0.24116504985256
N            2.31647911990222        0.37055969469996       -0.10550247263068
C            3.04071164100777        1.12494559055562        0.72749999834585
N            2.66647934580442        1.51110794269967        1.90116678716240
C            3.69532921104230        2.31362880976207        2.52556995882069
C            4.85501212364854        2.40781626146515        1.56206121628869
O            5.90446776389303        2.97993373584405        1.69484928166443
C            4.40120988296335        1.59421532150484        0.33533307984325
O            5.00157866828779        1.38768464714975       -0.69080052542334
H            0.59822560554820       -0.68938561956194       -0.57803365623591
H            0.34272215720193        0.74801048851414        0.44438419497342
H            1.04790591105348       -0.70841894502069        1.14648609837353
H            2.72241446918256        0.13555860806254       -0.99718195773328
H            4.00758107819206        1.85653041714141        3.47073012900396
H            3.30354944618383        3.30821303984404        2.76453281769441
