13
 energy: -28.640985689265 gnorm: 0.000113021685 xtb: 6.7.0 (08769fc)
N            0.97600918810537       -0.05318101604607       -0.19566754047035
C            2.36504216809098       -0.04152839571728       -0.09661963993836
C            3.10321185725904       -1.20870408391593       -0.07369455166647
O            2.59076493622595       -2.44656792509361       -0.11213521787388
O            4.43066448492349       -1.18724799391446       -0.00263174843265
C            5.13453605803162        0.01620143892915        0.00320740754014
O            6.34074742761118       -0.03092051773667        0.08691212480161
C            4.29711702983445        1.18646738674528       -0.09345864443049
N            3.00199011467322        1.14790472988144       -0.12562467077054
H            0.50017322485096       -0.60714113364304        0.50502142267225
H            0.61425027540596        0.89123145391610       -0.22320744106961
H            1.65332531577034       -2.41190398174276       -0.35917173053905
H            4.77471791921742        2.15381003833786       -0.13464976982261
