14
 energy: -24.145971139729 gnorm: 0.000140375990 xtb: 6.7.0 (08769fc)
N            0.96521278949733       -1.37836927055335       -0.02939716088943
C            2.08816948888939       -0.65285255157175       -0.11260118057224
N            2.14189107019027        0.65064556870153       -0.11107186548080
C            1.00066013019891        1.35368972909636       -0.02007929300581
C           -0.21834191152552        0.73374107473384        0.07111887780049
C           -1.58647070110251        1.07620924920691        0.17808020506286
N           -2.34387890589166        0.00029025143409        0.23213359673585
C           -1.54904311317131       -1.10525805806078        0.16579663169296
C           -0.23597497072795       -0.73772002379354        0.06592626114537
H            0.99426385132947       -2.39153785027287       -0.03605307250336
H            3.02373545605252       -1.18875334396127       -0.18705316625892
H            1.11539973141336        2.42972511390351       -0.02439061575992
H           -2.01370951783676        2.06073391447562        0.21523708657681
H           -1.98365339731554       -2.08625380333830        0.19506369545615
