12
 energy: -24.987597420926 gnorm: 0.000094578329 xtb: 6.7.0 (08769fc)
O            0.87137288162905       -1.36597621919083        0.00123348950690
N            2.03116107342105       -0.66381232340560        0.00231830155384
C            1.98981784171598        0.63288970613561        0.00296142300202
N            0.91242682305043        1.44224955009439        0.00284564927448
C           -0.22925854112998        0.80829679376791        0.00173525944966
C           -1.58692686944891        1.15679320761668        0.00102743045180
C           -2.26836169961085       -0.04054785879407       -0.00011890791941
N           -1.47026451632588       -1.15997848279578       -0.00021253939158
C           -0.25472867626033       -0.69706562708539        0.00086017301482
H            2.95622084924899        1.11546433080414        0.00461087788586
H           -2.00027750796416        2.14352759319452        0.00131453854797
H           -3.33381165832540       -0.18463067034158       -0.00089569537638
