14
 energy: -24.075183303750 gnorm: 0.000086250674 xtb: 6.7.0 (08769fc)
N            1.01526443035086       -0.30648508589061        0.05663817941876
C            2.28466458815431       -0.26911370063723        0.05931304471271
N            3.12670660040783       -1.38089305434720        0.06396881446203
C            4.48845139864104       -1.26886540973060        0.06663143125409
C            5.04825526742284       -0.01933994456695        0.06468204529714
N            4.28787904789859        1.10296603776027        0.06017340375249
C            3.00652882974207        0.99242530236111        0.05766659953156
C            5.25400511942566       -2.45547529733685        0.07101507610858
C            5.88631436572951       -3.47714964964104        0.07479257157052
H            0.61399123145950       -1.24187483089519        0.05816747955284
H            2.71038443878931       -2.30525427427820        0.06538388327541
H            6.11679646460996        0.12354431909669        0.06659679411624
H            2.41618916864122        1.89711538589447        0.05405418421840
H            6.45671904872727       -4.35839979778868        0.07808649272925
