15
 energy: -27.708152527512 gnorm: 0.000030908460 xtb: 6.7.0 (08769fc)
C            1.13783419804964        0.04633840184882       -0.11758325338644
N            2.57271768421115        0.10512183309687       -0.07139377045441
C            3.18202830356394        0.94030111243033        0.66910845254866
O            4.55246270082034        0.88373342430206        0.61321774116993
C            5.27753326921719        1.73642649055191        1.36773878311738
C            4.70577172263334        2.65350247777441        2.18503801527038
O            5.38716244329290        3.52755042289834        2.95831466152849
N            3.34098549000091        2.75186450387554        2.27920483898356
C            2.63198329111472        1.95230356505544        1.57177928501167
H            0.87645405810582       -0.74413772679563       -0.82001684687645
H            0.69976552725329        0.98636003932098       -0.46678238384554
H            0.70545570649170       -0.19334375908151        0.85866856508813
H            6.34093599449464        1.59555590725353        1.23788189834137
H            6.33944876941929        3.40954408836887        2.84963599888154
H            1.55863084133110        2.04426921910006        1.65905801462172
