15
 energy: -25.302500428587 gnorm: 0.000073189980 xtb: 6.7.0 (08769fc)
C            1.02378082613846        0.01001559302066       -0.01341454030574
C            2.55032588743851       -0.03675376043629       -0.07728904043872
N            3.08404387623347       -1.17351462541629        0.64945141614259
C            4.35743130865943       -0.83273451655455        1.24573538864890
C            4.37513330333386        0.66496193792263        1.37917505495036
O            5.15198682823300        1.34425768488421        2.00105323943248
C            3.19913550699677        1.17905361977036        0.54225085293652
O            2.87873592815828        2.33206580277875        0.40652020428188
H            0.59788851332860       -0.82139154433430       -0.56799503972488
H            0.67030014895566        0.94657975093270       -0.43700884549266
H            0.70298175139508       -0.05677197330651        1.02247629829651
H            2.86261074636791       -0.02825461233078       -1.13894076859894
H            3.10607565146191       -2.02501102018884        0.10431442826224
H            5.22841071196345       -1.11734811485255        0.63353861170420
H            4.46844901133566       -1.31810422188918        2.22007273990526
