18
 energy: -24.445423912854 gnorm: 0.000053253394 xtb: 6.7.0 (08769fc)
C            1.53477835937169        0.34519325602348       -0.04182515808637
C            2.92616019022411       -0.06986742399550        0.30798559400760
C            4.23563107142053        0.64362450810390        0.26687375545753
C            3.68714061698111        0.16432558304076        1.59189964669071
C            4.47881963714161       -1.10923951229719        1.89703910864476
C            3.89635138085562       -2.15008015429595        1.12862632980809
C            3.64377432018331       -1.35178707807275       -0.09642229585395
N            4.99953385896457       -0.53365988336254       -0.17231166850689
C            5.75412083201157       -0.91488277418106        1.07885402605560
H            1.32976619628102        1.33583963700128        0.36010093722489
H            0.81351402013958       -0.35689489417653        0.37591551382662
H            1.40512778195584        0.37437931282629       -1.12336828705945
H            4.52783246812180        1.64566000687454        0.00419791249755
H            3.35041366797984        0.82972564598936        2.36853362554992
H            4.23460913604714       -3.17095949902326        1.12414608530354
H            3.40563374422589       -1.85343075599994       -1.02686977697872
H            6.38253448276047       -0.07895568278739        1.38132374962563
H            6.34540823533429       -1.81436029166750        0.92959090179294
