14
 energy: -24.403796158074 gnorm: 0.000164130049 xtb: 6.7.0 (08769fc)
O            1.93284638286468       -0.00561132836299       -1.58544832994824
C            2.70028265680905       -0.04583774397096       -0.65271337649444
C            3.06608107386749        1.08867469653303        0.22069351366746
C            4.21229726337406        0.71026427715241        0.85873497511039
C            5.50411105051445        1.16438219751266        0.34264601197242
C            5.87342823684922        0.18235470065174       -0.50273344732684
C            5.06589161854524       -1.05480996121106       -0.32565713083014
C            4.24066689744116       -0.80858612949062        0.86269525016211
N            3.54759852048628       -1.14031746867523       -0.35384573992456
H            2.73670731472678        2.08753102112585       -0.00060680192507
H            5.89606032411626        2.16197765878884        0.40912320487989
H            6.67845712279266        0.23661280850591       -1.21313126601381
H            5.49891056249173       -2.01078302363353       -0.58024786356655
H            4.13294097512095       -1.41681170492606        1.74563100023739
