18
 energy: -30.357356725042 gnorm: 0.000054630237 xtb: 6.7.0 (08769fc)
O            3.06632986448545       -0.04084443886769       -2.79956122992295
C            2.51218447713600        1.18388800518222       -2.36155841141527
C            2.91116770493613        1.38619903319565       -0.89037725210149
N            4.33392298100053        1.47931456827582       -0.65859342640941
C            4.97032286166456        2.71140734982584       -1.03286721943331
C            6.41787344755513        2.54844828421795       -1.38765632179694
O            6.97348048330933        1.48474949941047       -1.55937172305729
C            7.17841331514627        3.85026914555787       -1.55765732495578
O            6.76477119324557        4.93492764477411       -1.24353044679013
H            2.78981897585254       -0.20978113221240       -3.70617666240208
H            1.41671661445890        1.16651490236115       -2.43616406111575
H            2.88761097938703        2.01406450474672       -2.97894287326964
H            2.55079926874388        0.52408018528746       -0.32388026292976
H            2.43104438418762        2.28947783562090       -0.50683262064196
H            4.81437431988790        0.68380006671943       -1.07005655464116
H            4.90203889263608        3.43474994921344       -0.20866185885284
H            4.50695626560680        3.20389406238717       -1.90705828335603
H            8.17741397076041        3.70455053430407       -2.00750346690822
