16
 energy: -27.450704180113 gnorm: 0.000083980883 xtb: 6.7.0 (08769fc)
O            1.15183557573345        0.09101497530091        0.01099194444245
C            2.35376541435840        0.05045248179114       -0.03251535334865
C            3.30566009550282       -1.04495859718209        0.41124526272586
C            3.91745222460003       -1.67899175098243       -0.85153483710556
C            4.87794534653998       -0.57850290039113       -1.33953847463937
C            4.67617836852084        0.52508757021734       -0.28492620488515
N            4.42854431644864       -0.26184455979552        0.92035317270248
C            3.31320041645588        1.14937853821445       -0.52022618109554
O            3.02760992234832        2.23937166368586       -0.94273575473103
H            2.88655857215764       -1.74682229003573        1.12821688155585
H            3.15103236116751       -1.92946361414915       -1.58329034170682
H            4.45718190588513       -2.58418920183650       -0.58144249147809
H            4.64159092947613       -0.22120739594740       -2.34059220479029
H            5.91147118424717       -0.91786722966559       -1.32066770142614
H            5.49210514596153        1.23821182187603       -0.19528244171181
H            4.18780822059653        0.30642048889980        1.72779472549182
