16
 energy: -29.360040037331 gnorm: 0.000057339242 xtb: 6.7.0 (08769fc)
C            2.13766035432915       -1.26416350568203       -0.33983565360841
C            2.71194174556171        0.09820758108737        0.03073319652776
N            3.31084958155740        0.73954634602244       -1.12046105595970
C            4.59816846601560        1.07807161045372       -1.20825351367809
O            5.44672861089503        0.94216119774381       -0.34655559310993
C            4.92914066978482        1.70507041025667       -2.58361624625818
O            4.16223781541743        1.65695728686559       -3.51208868924529
C            6.31587078038341        2.30161890169430       -2.63001401401182
O            6.60599160513285        3.43984917279678       -2.41164073148792
H            1.69497327963163       -1.72487474171051        0.53870278362106
H            2.92125206438948       -1.91669994687120       -0.71761210036084
H            1.36903700055509       -1.16092808112046       -1.10280348712021
H            3.49634986686984       -0.00117779455642        0.78407514551122
H            1.92175453131778        0.74665974318344        0.42234448913589
H            2.73098712134746        0.87409599233143       -1.94036898064518
H            7.07675650681131        1.52709582750483       -2.86426554931024
