17
 energy: -23.139607224875 gnorm: 0.000048415169 xtb: 6.7.0 (08769fc)
C            8.59672459586031        2.30576346683744        1.53686453420548
C            7.58724277645261        1.15560084874956        1.38193964691530
C            6.16631858842005        1.24883402742148        1.52448641399499
C            5.51295066259898        2.65673812405794        2.27612833671573
C            6.60921125945984        3.58137616609994        1.98937850505328
C            7.72769567316343        3.00003318244572        2.53486042298961
C            7.25055794273180        1.98739676408453        3.58072159014045
C            5.81950842823603        2.12136858432933        3.59072716450677
C            7.07718688388287        0.70413537898202        2.65519920605939
H            8.74505066706343        2.87638253551579        0.62372213299401
H            9.54693426465633        1.92101770146635        1.90784290745483
H            5.43697614473841        0.63182573498822        1.03768017131401
H            4.49164521624888        2.86762115087715        1.98468111239526
H            6.61301250420518        4.25914891721261        1.15431524448731
H            7.83171127636663        1.82707648433385        4.47896532690066
H            5.13618091808761        1.60439888442490        4.23973652148156
H            7.00127219782760       -0.26659795182684        3.10575076239134
