13
 energy: -26.954290573111 gnorm: 0.000079941578 xtb: 6.7.0 (08769fc)
C           -2.61413783321946        0.19064425679245        0.07798553482659
C           -1.20413143322084       -0.05209035483157        0.02857211130996
C           -0.01005818409955       -0.23901238405253       -0.01008122591180
C            1.37526101149993       -0.52677735295502       -0.04845545310480
O            2.29799725355150        0.24067213776965       -0.15413077520060
C            1.54631780109072       -2.05640998155384        0.13058567838726
O            1.45672107842835       -2.85764318966679       -0.75791381482574
C            1.84021462389345       -2.34506534846697        1.58313594714599
O            1.06429409502552       -2.24407851878023        2.49032213448160
H           -3.13474493604370       -0.53851725504601       -0.54289980287373
H           -2.83833776398208        1.19769332224110       -0.27209503876160
H           -2.95773018660185        0.08371359801783        1.10740533270421
H            2.91221447367810       -2.58489892946808        1.73850937182281
