13
 energy: -23.549366136622 gnorm: 0.000057233731 xtb: 6.7.0 (08769fc)
N            1.08451727345182        0.10661584181937        0.25058120046211
C            2.42879033621074        0.09316423531565        0.04174801251109
N            3.07478872565894        1.22263563970655       -0.07220697317677
N            4.41011748431907        1.14781081403885       -0.18981564507444
C            5.16042722147373       -0.02696149260708       -0.21572665114541
N            6.42307083872279       -0.08018397640712       -0.32781885201457
N            4.44217313078115       -1.20083722593925       -0.11421383478825
C            3.16918642241642       -1.14868111784052        0.01039486698734
H            0.61948253984639        0.98807289939075        0.10626285662701
H            0.56505056926914       -0.72362085793082        0.02192076738045
H            4.86959413232770        2.04762104882867       -0.26411058639224
H            6.87269925067695        0.82835150292443       -0.39828781784082
H            2.64457207484514       -2.09405731129948        0.08895265646449
