12
 energy: -26.890515900752 gnorm: 0.000055772015 xtb: 6.7.0 (08769fc)
N            1.14762550819540        0.12460407338372        0.06909323234565
C            2.39896381762679        0.11211702516845        0.07131537435436
O            3.10926483831600       -1.09955540266356        0.07628872820047
N            4.45928435482117       -1.12922809441431        0.07936624018504
C            5.09696558039667       -0.02259158235884        0.07750169477274
C            4.38786908981094        1.24606939224232        0.07185971590518
C            5.12866348330359        2.54039543555122        0.06914150348009
O            6.32567900918844        2.62154476310045        0.07146474914133
N            3.10292365791657        1.28975564757984        0.06892346702629
H            0.70833230766938       -0.78930576210224        0.07116410863962
H            6.17372519801468       -0.06823414731124        0.08006524007808
H            4.45751315474036        3.41405865182420        0.06477594587116
