16
 energy: -27.424877388574 gnorm: 0.000125809253 xtb: 6.7.0 (08769fc)
O            1.62211123775867       -0.11957674413817       -0.97419610113798
C            2.40993060651643       -0.10917858480158       -0.06098734238644
C            3.03556265409950       -1.30443539415436        0.52282603419390
C            4.02900323283830       -1.19749288774651        1.42477953531440
C            4.74759009806722       -2.37471454580962        1.93698671984455
O            5.48565554649168       -2.33509077777492        2.89952121965823
C            4.46127311123736       -3.63973416256453        1.14049260139823
N            3.04784855943524       -3.75967937809451        0.83912615214997
C            2.55756536408924       -2.65180245752243        0.05336035576722
H            2.71535227077643        0.83784922546489        0.42386480150495
H            4.37399502986056       -0.23268438865545        1.77346019391801
H            4.79408959973702       -4.51656874389121        1.69874345669239
H            5.01438647149859       -3.59759251773602        0.19498788660988
H            2.51627057620458       -3.85160364575416        1.69959508916978
H            1.46594194511141       -2.67340863235135        0.02236747156772
H            2.90950369627778       -2.77965636446994       -0.98091807426485
