16
 energy: -28.960721885956 gnorm: 0.000040120949 xtb: 6.7.0 (08769fc)
C            1.13010401971061        0.00928687729843       -0.05977712017166
N            2.57228415503612        0.06293893310847       -0.00548692532528
C            3.26568823156215        0.85894706946690        0.78714863990081
N            2.68278720208059        1.70456118753188        1.62832493080173
C            4.71143245048722        0.81907800075530        0.74849145455547
C            5.41684572597962       -0.06482470116258       -0.13077233195123
O            4.91214051189913       -0.85899439203477       -0.92154252326621
N            5.30203135521736        1.67882972247614        1.60459111202429
O            6.55607388547837        1.74869466106964        1.67500445464794
H            0.83993164501366       -0.73260218759384       -0.79784261316063
H            0.71588459201915        0.97622534431861       -0.35482270172263
H            0.71509287537133       -0.28026583704335        0.90847869346289
H            3.13468897285127       -0.54334015107400       -0.60853717218913
H            1.68434725375891        1.78707691875550        1.70960961503882
H            3.30107689171323        2.27001758570326        2.19150430853975
H            6.51307023182130        0.01767096842441       -0.04792182118493
