13
 energy: -24.375648338648 gnorm: 0.000107522552 xtb: 6.7.0 (08769fc)
N            0.99895420238932        0.17699326238989        0.20293354561584
C            2.25074547632032        0.14887305773739        0.05824025850221
N            3.04095181897767        1.31511505423445       -0.16865528472691
C            4.38610630417060        1.25565342688469       -0.32061338847296
C            5.02639035495661        0.04738620220236       -0.25815652999246
C            4.19718717389619       -1.08696839128714       -0.03012479900477
N            2.92024463804293       -1.04039047021798        0.11557901978064
C            5.09091005038098        2.46867245406986       -0.54217142744573
N            5.65462158061846        3.45020819944298       -0.72030756780276
H            0.57128834690414        1.09544469916738        0.14828663044512
H            2.57002457097191        2.21070920323340       -0.21518468084105
H            6.09266864254519       -0.03623921801123       -0.37444442443878
H            4.64595683982568       -2.07094747984608        0.02983864838161
