15
 energy: -28.059448154705 gnorm: 0.000086487496 xtb: 6.7.0 (08769fc)
O            1.29873604742413        0.19303732262811        0.56420976906626
C            2.44840233473065        0.09732801458894        0.22961948416406
C            3.23950008213006       -1.16339851119466        0.00372886359156
C            4.46838847699123       -0.76932828489478       -0.82209035998867
C            4.67130816836013        0.71225341789862       -0.54697578750827
C            5.96084520518788        1.29677344976773       -0.11743724371249
O            5.46502270371279        1.48538756740215       -1.40403169592893
C            3.38796773984490        1.28858250212260       -0.03140796142854
O            3.13143365020186        2.44598975668888        0.17112354070148
H            2.62831674855476       -1.93230459660579       -0.46875402781726
H            3.53199061780419       -1.54039170842604        0.98844515696939
H            4.27433809921482       -0.90325607255778       -1.88837798532636
H            5.34862762091286       -1.35626431797134       -0.56169057915093
H            6.81882128125810        0.63943793500729       -0.02825120430599
H            5.95562122367162        2.17148352554606        0.52400003067462
