13
 energy: -26.300055758511 gnorm: 0.000075045411 xtb: 6.7.0 (08769fc)
C            0.92625648004641        0.00464541781727        0.03422573445734
N            2.35801443255662        0.14532942140146        0.05471269982480
N            3.16322553906347       -0.93343156053034        0.23858045598540
C            4.41757039797203       -0.55108509869643        0.21892803019450
C            4.47403998902899        0.84168389563926        0.01389228337023
C            3.11244816128038        1.22893494249705       -0.08368640983121
O            3.02517154792784        2.52639291299636       -0.27868254082173
N            4.43738068894273        2.95180732531592       -0.30007927537418
N            5.17531994466599        1.98694676888020       -0.13518409085369
H            0.63884248771090       -0.67796526924146       -0.76599398785114
H            0.48077943459538        0.98312945551197       -0.13159523684764
H            0.58622521417537       -0.40472083034981        0.98599162056645
H            5.20813568203391       -1.26076738124146        0.34742071718087
