17
 energy: -28.705075699728 gnorm: 0.000106232428 xtb: 6.7.0 (08769fc)
C            1.03684313040776       -0.05048755223443       -0.09932645008136
N            2.47970931586979        0.02522059115256       -0.17329971821241
C            3.18073031086191       -0.30601638595677        1.04645166065254
C            3.11539689848206        0.44418459066623       -1.28539393071277
N            2.66547583201069        0.90385839831686       -2.38403604836431
C            4.63165784777808        0.34873897770882       -1.31120943374061
O            5.24883104061894       -0.68179055361615       -1.36643273452780
C            5.20350025283934        1.74293991068331       -1.40969197813457
O            5.60715646182728        2.40257260965986       -0.49321144286597
H            0.75994990783718       -0.91835310947097        0.49903589338357
H            0.61243004276076       -0.17131977610059       -1.09499360831928
H            0.61792901980426        0.84929454085550        0.36141771627107
H            2.69427442924890        0.19118586909719        1.88828575726184
H            4.21440350702688        0.03108438637366        0.99927486118110
H            3.17003908877536       -1.38624222315415        1.21793716309805
H            1.65496628583715        0.93633157164215       -2.47520607727247
H            5.12630662801358        2.13706815437686       -2.44170162961642
