10
 energy: -25.840191465907 gnorm: 0.000109073037 xtb: 6.7.0 (08769fc)
O            1.04348152824521       -0.16593335518621       -0.07072775092447
C            2.23625239690263       -0.02624440177859       -0.07000131834855
N            3.09588564334088       -1.16317780360194       -0.06934231531167
N            4.29693300509818       -1.15466346681804       -0.06923759462158
O            5.00861654319062        0.05159109646701       -0.06976348216876
C            4.34020093556030        1.19172232334847       -0.06980186561401
C            2.98110176616963        1.24932697320125       -0.06980642903745
C            2.28112934831713        2.47591587653052       -0.06970082108159
N            1.69413454744979        3.45913427156033       -0.06959411244961
H            4.97853428572562        2.06914848627719       -0.06977431044232
