19
 energy: -29.685061895375 gnorm: 0.000037388643 xtb: 6.7.0 (08769fc)
C            2.16249151327477        2.11181753921676       -1.53077015085167
O            2.25777022382131        1.76945428170062       -0.16483975463432
C            3.23696192719340        0.79848598752566        0.10968678855113
C            4.64773443625082        1.31534883639096        0.01429777278766
N            5.60710037238170        0.55042739129408       -0.39702897797796
O            5.53371635894567       -0.65824903355263       -0.77074611318842
C            4.95763422785222        2.70938668356522        0.38466030443957
C            5.62426511936460        3.62566699412161       -0.58811871304481
N            6.36446239355070        3.03778757008943        0.49954182817130
H            1.33685508921920        2.81604720993942       -1.61031353690034
H            1.95089073444395        1.22726443997526       -2.14250861515306
H            3.08213339217995        2.58299281137686       -1.89418679326525
H            3.14851127484786       -0.07030458998428       -0.56039709125133
H            3.03804091131129        0.46332972706332        1.13486565069799
H            4.23280180051876        3.14710361822254        1.06523561658300
H            5.37025681943600        4.67882809121307       -0.56616364131205
H            5.88110013788547        3.24442795331832       -1.56832359260377
H            6.59076892411366        3.67374840408669        1.25645584906348
H            6.54769434340865        0.98399608443723       -0.38841683011143
