14
 energy: -25.539191128847 gnorm: 0.000055511496 xtb: 6.7.0 (08769fc)
C            1.06729628277457       -0.01482954232583        0.14180963689331
N            2.50762717191931       -0.09231891730569        0.17047658846047
C            3.21403795391712       -0.91970358025711        0.96774164838890
N            2.82417605023153       -1.79244921057618        1.81359972974574
C            4.70396529950938       -0.81040400678805        0.83195609795257
O            5.26873540132643        0.05594302505791        0.21030444488402
C            5.38370400056846       -1.91320007055221        1.62037422546976
O            5.80371938459260       -2.93899849589243        1.17046831120083
H            0.75660391558557        0.50280475088591       -0.76184994416434
H            0.67983073082968        0.52365272894021        1.01269706603188
H            0.64153679945668       -1.02027429762920        0.13359074084786
H            3.03874525133149        0.57450104302596       -0.37090295492320
H            1.81683896689319       -1.87717485207851        1.91697784913873
H            5.45208279106395       -1.66487857450476        2.69780656007353
