12
 energy: -24.545847223225 gnorm: 0.000046433542 xtb: 6.7.0 (08769fc)
O            1.18689677881187       -0.07416737922894        0.27981094586503
C            2.52112030579473        0.05238925211872        0.11990653910450
C            3.17330637742131        1.23346678661444       -0.00243683738133
O            4.51611856086075        1.29634528798556       -0.16060164401253
C            5.24547617767042        0.12321651646775       -0.19872027957216
N            6.49856965169081        0.10795342934103       -0.34330453880442
C            4.47427492507599       -1.10365112727437       -0.06103976132643
N            3.20375547244646       -1.13769614880144        0.08773541523352
H            0.75736885453344        0.79079630568558        0.29558551133741
H            2.71046454736387        2.20965309072918        0.01245603289824
H            6.92706931495842        1.02507196698863       -0.42911713908138
H            5.01561903337191       -2.03747798062614       -0.08693424426045
