14
 energy: -28.267890771667 gnorm: 0.000071259349 xtb: 6.7.0 (08769fc)
O            2.90110147828972        1.90442082075917        1.85098087982801
C            2.56964680111052        0.94984251463429        1.21035637682110
C            2.84275087857536       -0.49577098152050        1.56163117645230
O            2.05386372620512       -1.27973691559287        2.01223080801440
C            4.31107663361177       -0.84287753291747        1.22643969042579
O            4.72891146525075       -0.82207478717185        0.09926975538678
C            5.09867836032520       -1.11992149567493        2.45004821894067
C            6.49408345728832       -0.57308657582499        2.52833400562447
N            6.27306294659228       -1.96003848113166        2.28233083226006
H            2.07888447029551        1.03497294069455        0.21920851650701
H            4.51674613222076       -1.18462489054783        3.36538433501859
H            6.84726813862358       -0.22435912078755        3.49238937295348
H            6.85295855304123       -0.01626857420106        1.67245474205026
H            6.44532695856987       -2.57699692071743        3.07039128971709
