14
 energy: -26.417348756267 gnorm: 0.000107180382 xtb: 6.7.0 (08769fc)
O            2.50494270450338        0.91031210037351        1.05072994085733
C            2.28438294841871        0.09810375719711        0.19835212636689
C            3.08004243997926       -1.17710758079152       -0.05776461948180
O            2.48802352653699       -2.17069234033360       -0.42714960348506
N            4.43141648289269       -1.14812024729277        0.15590410749055
C            5.22962345304504       -0.07903987811193        0.53437538377753
C            6.51113981164250       -0.50836314217216        0.60818986562859
C            6.52479692137964       -1.89498830842902        0.26076172446884
C            5.25075276256985       -2.25623720149799       -0.01214350480435
H            1.39659064164574        0.14940995874688       -0.45791270872403
H            4.81590700464696        0.88947576271145        0.72514539345616
H            7.36564240308375        0.08093182065295        0.87594189260940
H            7.39025995348867       -2.52620265540614        0.22453657466244
H            4.82448894616683       -3.19328204564675       -0.30904657282247
