11
 energy: -22.854368477668 gnorm: 0.000081697547 xtb: 6.7.0 (08769fc)
O            2.50841828386494       -0.81067968586088        0.76618196983016
C            2.25920866453939        0.06320337628334       -0.01918844007493
C            3.09274936959294        0.38081009739603       -1.20760506980644
C            4.26364033576751       -0.32361501535659       -1.52822491164940
N            4.96805744943296        0.00079450561546       -2.59767825777043
N            4.56652225128266        0.98052482117172       -3.35361898017637
C            3.46199189957279        1.63092290844748       -3.03597617891167
N            2.69160840532642        1.37897707552862       -1.98567634407959
H            1.37573095851452        0.71834705016294        0.07081413527523
H            4.62607856255180       -1.14184263759573       -0.92395530968833
H            3.16305381955407        2.43827750420762       -3.69001261294823
