15
 energy: -27.711117189598 gnorm: 0.000048616233 xtb: 6.7.0 (08769fc)
C            1.14078725137089        0.01430283212119       -0.20979377603140
C            2.65909400775086        0.01888238309070        0.00218505028063
N            3.26373054463549       -1.18105714409769       -0.54148976114127
C            4.07523243235557       -0.90277596505471       -1.49997641980205
N            4.74344672060358       -1.79779341477044       -2.23760084596333
C            4.24432414602867        0.56279235565936       -1.74486484728945
O            4.96333713393330        1.11315704857073       -2.54226690314472
C            3.30693140684964        1.19669194921868       -0.70427931259164
O            3.13885320164096        2.37184758926226       -0.51217240636058
H            0.71542002168227       -0.86069490233446        0.27288337009149
H            0.91165976034436       -0.02538547250685       -1.27281306322723
H            0.70694807401105        0.91510368845014        0.21624286331764
H            2.86414914760213        0.06534448371789        1.07913400911085
H            4.67573295402757       -2.77537854575576       -2.01536316316026
H            5.42254319716364       -1.47464688557103       -2.90461479408867
