13
 energy: -23.556225090533 gnorm: 0.000094729511 xtb: 6.7.0 (08769fc)
N            1.20842593312989       -0.06835968345265        0.08143602423288
C            2.55516283695100       -0.09050021989380        0.08081789621525
N            3.18933025210017       -1.22785104633849        0.08033271396447
N            4.53950877506912       -1.16802748893733        0.07979234751191
C            5.28526167222866       -0.01043328330645        0.07969064002130
N            6.55715715472690        0.07940869100944        0.07916077562095
C            4.44539624968849        1.18037963995770        0.08026684113472
N            3.16620029286454        1.14925124344608        0.08079901465120
H            0.69491479116226       -0.92894191704871        0.08132609579085
H            0.74263679817351        0.81921060975368        0.08162038767383
H            4.99148465909316       -2.07509938480082        0.07943035845685
H            7.03824382470480       -0.81789250292169        0.07879220474645
H            4.93842676010750        2.14284534253304        0.08023469997935
