18
 energy: -24.469967926792 gnorm: 0.000116880869 xtb: 6.7.0 (08769fc)
C            1.47464188988007        0.93760909263590        0.08747484083090
C            2.45903827078218        1.95486256133704       -0.46453409048468
C            3.55981999410050        1.01812645750050        0.08770229229029
N            2.53776224196309       -0.07281630603296       -0.12195619821208
C            2.73093380428447       -0.08560443990105       -1.56670755648808
C            4.19438245339431       -0.28265985304600       -1.72842652192365
C            4.62624575303827        0.85041518547793       -1.00427364362234
C            4.24884108019599        1.91033448116660       -2.03714727877603
C            2.71771190219741        1.53034311503459       -1.90371516597352
H            0.55262089570120        0.75074197545314       -0.46547470569025
H            1.26872033392109        1.05090523469191        1.15085077372856
H            2.41104607228084        3.01773010923800       -0.24805836676138
H            3.88453302289048        1.12815062813600        1.11690569229989
H            2.03170464279480       -0.71090689550594       -2.11491107526892
H            4.67627869866432       -0.70878580886235       -2.58890485092533
H            4.66935595833996        1.73372658031911       -3.02337978493749
H            4.42960716821878        2.94141923440099       -1.73391924715089
H            2.03196581735222        1.89537864795658       -2.66692511293501
