15
 energy: -28.053232694258 gnorm: 0.000047241157 xtb: 6.7.0 (08769fc)
C            1.09110489823568        0.00893402682598       -0.28755654824956
C            2.57770459598951       -0.08158701751718        0.10761813039820
O            2.74141913896051       -0.20410861571310        1.49778563275639
C            3.25551093055011       -1.22089344835787       -0.60435245127345
C            4.00193405549231       -0.82217215922571       -1.63869958215460
C            4.02413680357100        0.63837912227377       -1.74941570933501
O            4.45891027682738        1.33614085392172       -2.63277683328066
C            3.31286352899449        1.13773623720006       -0.47806496464525
O            3.35263645320909        2.23729956615103        0.00023130016006
H            0.56746261924943       -0.86569309047227        0.09163799815327
H            0.98555390415808        0.05281940020136       -1.36864084901853
H            0.65168820464992        0.90438875040409        0.14899352089736
H            2.41479793854681        0.59997906493331        1.92209033557817
H            3.11140691632492       -2.23279130222790       -0.26575675598278
H            4.54675973524076       -1.45682138839727       -2.31582322400362
