12
 energy: -26.567897272024 gnorm: 0.000048416207 xtb: 6.7.0 (08769fc)
N            1.15041881539656        0.00049170562283       -0.01895076867505
C            2.49046655176847        0.10610943013632       -0.01701478035620
N            3.30188941988798       -0.93945921683226       -0.01504403079592
N            4.60450061273969       -0.48471376395848       -0.01374490153242
C            4.61573663580516        0.83965795270568       -0.01484828078838
C            3.27557293345410        1.29931345033224       -0.01697819120359
N            3.35815264659932        2.64156869079252       -0.01799174146135
N            4.52470193421349        3.02774537375176       -0.01681228384949
O            5.44160654491093        1.86206131224760       -0.01462412119252
H            0.73595467000936       -0.91253263046327       -0.01790713518511
H            0.57974297887148        0.82400369981534       -0.01928062118528
H            5.35660625634345       -1.15306600415028       -0.01223314377469
