13
 energy: -25.037365739372 gnorm: 0.000108704098 xtb: 6.7.0 (08769fc)
O            1.27466726170342        0.00338101141931       -0.66292240094942
C            2.39242243343837       -0.03581595384026       -0.20778306378151
C            3.24157793101787       -1.19569171246782        0.06505728962315
C            4.42271440816643       -0.82553730401596        0.56503514614447
C            4.55714690306921        0.66271109530139        0.73325659338809
C            4.73353842912180        1.02799609365058        2.12878168533071
C            4.84671885908120        1.31108427158291        3.28588678927214
C            3.22780989835511        1.19961523067818        0.19694083806374
O            2.89144745834116        2.34504226673634        0.09902340662107
H            2.91572657751762       -2.20215601823346       -0.13047839942923
H            5.22210717664040       -1.48530293752462        0.86022508185658
H            5.39471668599378        1.07220835044313        0.15463448876048
H            4.96505597755366        1.57181560627028        4.29538254509982
