15
 energy: -27.365176565581 gnorm: 0.000043856870 xtb: 6.7.0 (08769fc)
O            0.96716361637698       -0.04234581608647       -0.58159396738676
C            2.26623535611804        0.04312103227098       -0.23416168740847
C            3.07224365199245        1.16395158885665       -0.06221822305563
N            2.87074717831403        2.53838916231943       -0.17334166194792
C            1.73220474911692        3.18293792421745       -0.50523974836239
N            0.64505803482488        2.57839112066293       -0.77224039991920
N            4.30170050910023        0.69238537795695        0.28917208741748
N            4.33494649136335       -0.63710727378013        0.35248582691056
C            3.11846144840166       -1.04372606664040        0.04054361057217
H            3.68415670616570        3.10300935015393        0.02244629986599
H            1.86142740798453        4.27122935349684       -0.51524296033327
H            0.64263357088090        0.89172101434297       -0.70587213212700
H           -0.13507911665128        3.17834656442094       -1.00634420324420
H            5.13316632876565        1.22387459792966        0.49219497911907
H            2.87214406724598       -2.08546793012173        0.01660217989957
