13
 energy: -24.742399893905 gnorm: 0.000078206660 xtb: 6.7.0 (08769fc)
O            0.94480688655052       -0.08653864520855       -0.06490292529160
C            2.15450397564091       -0.08849103155834       -0.07397978962115
C            3.07663042579788       -1.26885833399322       -0.07997273125918
C            4.36071407286936       -0.87789013019830       -0.09010086426193
C            4.40344098057289        0.58450597225286       -0.09160307997492
C            3.08905968449202        1.05482728198310       -0.08192860646956
N            3.15517055183981        2.39531862667987       -0.08342858471887
N            4.41320971169958        2.81368977772226       -0.09309431885622
C            5.19381035624168        1.73032277127650       -0.09845662852085
H            2.70265551963883       -2.27629181363410       -0.07634444648762
H            5.22864872873816       -1.51295959514887       -0.09629332020823
H            2.40307739036067        3.06975561837793       -0.07820409998200
H            6.25947171555769        1.84122950144885       -0.10662060434789
