16
 energy: -26.984631175491 gnorm: 0.000074013411 xtb: 6.7.0 (08769fc)
O            1.11790038602933       -0.11981267691880        0.18600263805071
N            2.34549614014833       -0.27169508386011        0.00844430128182
C            3.01750646688682       -0.42451095608328       -1.09794726973960
C            2.42600417883014       -0.46441421775113       -2.36766868874708
N            1.98769004955330       -0.49782964703274       -3.42944526233693
C            4.50544527698222       -0.61634530529863       -0.96019780345759
C            4.98673545970690       -2.07787954561699       -0.79581250256362
C            5.67018762216047       -1.60891827699791        0.49580924706444
N            4.95525399605556       -0.32817609828272        0.40384815173962
H            5.02496236627448       -0.08138494723812       -1.76467169176709
H            5.64111852151134       -2.44481174269703       -1.58086050514463
H            4.17581182363396       -2.78434843722114       -0.63712295150888
H            6.75657671363346       -1.53122143968520        0.40798311879146
H            5.42022980375108       -2.15829698049436        1.40499779905974
H            5.50334229318404        0.51259732091312        0.53797859019921
H            2.98000890165853       -0.26103196573494        0.84022282907847
