14
 energy: -24.486192908040 gnorm: 0.000043426501 xtb: 6.7.0 (08769fc)
O            0.94935277600404       -1.38637734996981       -0.03107743769513
C            2.06794613877535       -0.69152925224787       -0.11384691213275
C            2.13663845468587        0.67622732841875       -0.11362125481770
C            0.95826732038740        1.44389744826353       -0.02066525364012
C           -0.23023092885505        0.77138890931076        0.06760066677935
C           -1.60934727352976        1.07274104032879        0.17475535518394
N           -2.33405328637440       -0.02319747528457        0.22608131564532
C           -1.50697587454758       -1.10750035616310        0.15837882826241
C           -0.20673799596937       -0.70062039498999        0.06005937351237
H            2.94281254684128       -1.32290656693341       -0.18333331496478
H            3.09844047233718        1.15488301968613       -0.18529539762904
H            1.00588177472601        2.52289640105586       -0.01989643687668
H           -2.06485151533273        2.04425535263788        0.21361151541336
H           -1.91024260914825       -2.10072810411295        0.18547895295946
