14
 energy: -26.044101474273 gnorm: 0.000069282578 xtb: 6.7.0 (08769fc)
N            2.55376721536971       -2.09361987315923       -0.91541194597530
C            3.90398413588886       -1.98540456562915       -0.98397687753219
C            4.68716610652004       -2.98737219126315       -1.50209820078748
C            6.13037451356365       -2.88600703094563       -1.66584913662519
O            6.91043723428838       -3.81447175023228       -1.53164483997364
N            6.53637639653746       -1.67599898147188       -2.19023124419427
C            6.26109816380409       -0.50310686686370       -1.80252091406496
C            5.43086550904792       -0.20850035911748       -0.64554751873268
N            4.37785993027652       -0.86287798669597       -0.35400792711087
H            2.06760372484433       -1.45771991763403       -0.30605733929319
H            2.11810454920230       -2.97378507257390       -1.12763536756013
H            4.24257519139710       -3.94802625932414       -1.72561217965136
H            6.64476227987195        0.32355733446168       -2.39473517935119
H            5.66218504938767        0.64707352044886       -0.01988132914758
