15
 energy: -29.953430783250 gnorm: 0.000193512186 xtb: 6.7.0 (08769fc)
O            0.95868526558469        0.13908132169914        0.10012712905612
C            2.35049930641010        0.02627229007159        0.02699342384638
C            2.81900259267366       -1.44912516976611       -0.04167244840418
C            2.38282938605334       -2.22900093033155        1.16587417500358
O            1.66063933794021       -1.82170344203723        2.03424860933899
C            2.84379303191134        0.73642926090478       -1.22401723821311
O            2.16005384507531        1.01819967905931       -2.17216365345127
C            4.33407015357695        1.07503770123153       -1.22073995205210
O            5.16050077744070        0.52615039535874       -0.54689636559667
H            0.66997310845462       -0.30086569933285        0.91351615229218
H            2.83131557263572        0.49621824693108        0.90236928961210
H            3.90646173086760       -1.50549258829149       -0.12278888080769
H            2.38601187861654       -1.93300653747602       -0.92321924675287
H            2.78962432648654       -3.25578566416018        1.19116241419619
H            4.58396968627259        1.88387113613925       -1.92983340806770
