19
 energy: -27.759948801107 gnorm: 0.000031002182 xtb: 6.7.0 (08769fc)
C            2.98315233157272        0.62827645883422        0.84750898935964
C            2.69643985167193       -0.26802638271113       -0.30864630012186
N            1.58184950980083       -0.92538177524845       -0.39431779346587
O            0.62116643817659       -0.95080398482939        0.43604514255840
C            3.67792777334849       -0.43302007152504       -1.38349355653119
C            4.29688542745457       -1.73769059743094       -1.73452583279911
N            3.37830161417202       -1.12302212641416       -2.66771368109193
C            4.12942306622130       -0.06739673472377       -3.38840347736229
C            4.42861685026177        0.69441538401846       -2.08499294504993
H            2.14727231582387        0.57324559848554        1.54159462981172
H            3.10856127976087        1.65847600203344        0.51614822300038
H            3.89784522062814        0.32126318700792        1.35297614251918
H            3.89719749228597       -2.61774872781027       -1.24983567639758
H            5.35193677275812       -1.78581089529944       -1.97407865479813
H            1.46630664074101       -1.49657350259223       -1.24883834201133
H            3.45904708220990        0.45945194225573       -4.06450211019340
H            4.98916336864648       -0.44743590042119       -3.94193551021724
H            3.92369796996259        1.65442728350252       -2.02185945248474
H            5.47570899450298        0.80844484286799       -1.80794979472471
