16
 energy: -26.724362411602 gnorm: 0.000095989993 xtb: 6.7.0 (08769fc)
C            1.05966625286332        0.15720351995115       -0.40146884010357
N            2.36869839792439       -0.18265485246480        0.09162973732914
C            3.04941534754692       -1.25674634937688       -0.34612266851630
N            2.53146944048528       -2.04009242017396       -1.25123312093033
N            3.28454348408837       -3.09684301210980       -1.63403553538068
C            4.53458812195031       -3.40273634956093       -1.14845183344588
N            5.26731232909418       -4.39001831657602       -1.48912638963516
C            4.98324021930707       -2.44400403427703       -0.14633474673105
N            4.29302616728656       -1.43646097505979        0.23378377125987
H            0.71218174914757        1.05718560991095        0.09707388989053
H            0.35928603767045       -0.65963541412532       -0.21164194494121
H            1.09310756663814        0.32626354326849       -1.48038834632963
H            2.82075611409962        0.38150386476098        0.78984307979067
H            2.84633378111247       -3.67913878056378       -2.33820701946591
H            4.85029036703209       -4.99224321768362       -2.19644908353722
H            5.95772462375326       -2.59964281591964        0.29614905074675
