14
 energy: -27.513355322323 gnorm: 0.000047903063 xtb: 6.7.0 (08769fc)
C            1.08307404436821        0.02139193223157        0.07242170918613
N            2.51947335149935        0.08506697006338        0.07305898711358
N            3.17741083614122       -1.05471831214686        0.07403855129508
C            4.46697528655114       -1.00992280370542        0.07467773381543
F            5.11222209994426       -2.17637357570668        0.07569938918750
N            5.23828284783827        0.09665073455025        0.07439899446987
C            4.60329539951799        1.21913262878000        0.07342632831736
C            3.14666025698679        1.32618534620555        0.07274235573227
N            2.41302400250500        2.36935539403291        0.07194495733115
H            0.78959307452734       -1.02450240991009        0.07113112298572
H            0.70034931201094        0.53804415942390       -0.80841154119483
H            0.69948897097258        0.53593904829443        0.95413519418847
H            5.19772552423698        2.12417024976396        0.07311659556081
H            2.93556499289993        3.23929063812308        0.07168962201146
