15
 energy: -27.671373818823 gnorm: 0.000106348936 xtb: 6.7.0 (08769fc)
C            1.14074637153889       -0.01775067637996        0.08815661937010
N            2.57464957367553        0.07047502026455        0.25112731029974
C            3.21447612403519        1.13747202485329        0.70734835704244
N            2.56571217919714        2.23836374164816        1.06876807485007
C            4.60969279508754        1.08739878201899        0.83214695617933
C            5.81418689214181        1.02594072590553        0.99397696006108
C            7.29443847381831        1.13926807361788        0.63804091604217
O            7.29855339252078        1.54330266173694       -0.53440957112551
O            8.16197520506276        0.85564367371719        1.44339878222540
H            0.89213122061618       -1.00196305861525       -0.29748780002851
H            0.78341508652152        0.73248247261699       -0.62113746953464
H            0.63390288768899        0.11753168126614        1.04630459736522
H            3.13865501712259       -0.72399927165658       -0.01178615801301
H            1.56424095394243        2.31090621848747        0.99262155585484
H            3.08753382703016        3.03223793051976        1.40090086941069
