19
 energy: -24.127131932995 gnorm: 0.000187321088 xtb: 6.7.0 (08769fc)
C            5.00783169572727        5.13825962583280       -0.83894305813267
C            5.75453174717319        3.90505990127680       -0.42407614360184
C            7.29433803514974        3.79620616856261       -0.20251751295080
C            6.75886133631037        2.40276999453310        0.10788680244482
C            6.85231531441345        0.98870807953231        0.76869383332864
C            5.44919050372371        0.60937303744986        0.36054427906294
C            4.83030353896113        1.83751243713194        0.01597678650638
C            5.69362833088112        2.50322651660227       -1.05346575019275
C            5.49137815916318        2.98166923523986        0.78289919279505
H            3.94444731649381        4.91728195490103       -0.91040528544981
H            5.36095348422834        5.48844472232732       -1.80791313470549
H            5.15246332904274        5.93164087104482       -0.10734425376834
H            7.68767629031588        4.36806043722507        0.63669416950651
H            7.92592725507921        3.90220739670160       -1.08377615988980
H            7.07832825664423        1.10797428261195        1.83022333501768
H            7.56746682849010        0.28630477433777        0.33343026876154
H            5.22226965608960       -0.33284061812852       -0.10214028170188
H            5.79408051742923        2.21199426666007       -2.09058845679161
H            5.42698840468374        3.26505691615736        1.82602136976145
