13
 energy: -27.013386207282 gnorm: 0.000045198734 xtb: 6.7.0 (08769fc)
O            1.34249083684530        0.01748311646329       -1.19567422818162
C            2.16749447355155       -0.05124389461928       -0.32944801092433
C            2.79412619489757       -1.34322399747188        0.17326501164618
C            4.28050748781249       -1.26432198059270        0.05379438382824
C            4.96943794596988       -0.12574331755545       -0.05232276332544
C            4.31650722555047        1.18555802258937       -0.11315009319035
O            4.82863154852544        2.20444234520371       -0.50766128267112
C            2.85609827896880        1.11313868199119        0.35758637745240
O            2.38970398401356        1.78975990641174        1.23385683292138
H            2.39630257882283       -2.19352625450639       -0.38767276833102
H            2.51914208801233       -1.47068979065121        1.22647628612843
H            4.79756614938028       -2.21381449189997        0.02358705322758
H            6.04487120764952       -0.12013834536242       -0.15745679858033
