12
 energy: -24.959990575943 gnorm: 0.000079063606 xtb: 6.7.0 (08769fc)
O            0.92051634519230       -1.37427832015401       -0.03299890027076
N            2.08303110147491       -0.65950233012246       -0.11746061138987
N            2.09366347627293        0.57330655847958       -0.11194363036495
C            0.98384234904169        1.36165642986712       -0.02341532563300
C           -0.24001940462205        0.77618942543576        0.06676849570676
C           -1.61582875916634        1.08885398189549        0.17282603550001
N           -2.34332122440030       -0.00245043843549        0.22187842110527
C           -1.54070533882921       -1.10316186053365        0.15499733359453
C           -0.23440256448323       -0.72146773232688        0.05806739955088
H            1.17249786846596        2.42467637046057       -0.03223501257972
H           -2.06125466211665        2.06359660799668        0.21192586465006
H           -1.96013918683001       -2.08834869256272        0.18127993013078
