15
 energy: -25.361051961751 gnorm: 0.000115105034 xtb: 6.7.0 (08769fc)
C            1.03091650319894        0.14392857474557        0.15691497766639
N            2.38866505185657        0.21966786213178        0.63262761496905
C            3.13736122039612       -0.84942994609331        0.92434730720118
N            4.33719514331729       -0.77042766834580        1.43706807932061
C            5.19073876822148       -1.83779637025644        1.73760878360296
C            4.80765803625845       -3.14502686829420        1.50152016838095
N            4.47722475052183       -4.23599613066675        1.29998011630988
C            6.43157596514817       -1.56313715878095        2.28074461708779
N            7.46793697794273       -1.31933281859075        2.73519679037887
H            0.90461642346784        0.79876863754116       -0.70605856278627
H            0.32663018168478        0.44903251725213        0.93519957721448
H            0.80461252849620       -0.87749672640650       -0.13985694525462
H            2.73707566424856        1.13795246425677        0.86904389691742
H            2.74055227766695       -1.83093929986771        0.70600908078913
H            4.72790050757412        0.14344293137504        1.64694449820205
