15
 energy: -27.249986889568 gnorm: 0.000041784319 xtb: 6.7.0 (08769fc)
C            1.11838266460460        0.14191339325741       -0.12370699761238
N            2.54666720631724        0.05202939896066        0.02086853684552
C            3.07354596781086       -0.53151544496413        1.02736127035241
N            4.46559120574356       -0.56349278593247        1.07312086121658
C            5.15215427123677       -1.14648839344937        2.07930772050195
C            4.44258930192825       -1.72485633585537        3.08577937080163
F            5.07900429544329       -2.32116281540987        4.11603442230083
N            3.09582159332372       -1.74732844886196        3.13311564452315
C            2.44713293511048       -1.18936765605225        2.17046412370471
H            0.92279779140805        0.67867378919809       -1.05168854451048
H            0.65523495402512        0.69109743304547        0.70277479609856
H            0.64819601455340       -0.84521696411215       -0.18432044703424
H            4.94197139717540       -0.11839001189420        0.29961980936930
H            6.22981698533942       -1.13403406453207        2.05097874839570
H            1.36881341597983       -1.22211109339780        2.23376068504678
