12
 energy: -27.318442644929 gnorm: 0.000074956105 xtb: 6.7.0 (08769fc)
O            1.16362167564976        0.44979743387439       -0.17171625470057
C            2.24951169293296       -0.02839394614899        0.05357968483107
C            3.07111132363801       -0.73212604556718       -0.91826328624226
C            2.77773438807008       -0.97640925213362       -2.22962008944346
N            3.76514762555707       -1.66325906457458       -2.86420748741148
C            4.81823791414142       -1.93775401389584       -2.00794949143910
O            5.82204837500017       -2.52808285671029       -2.29107127836548
C            4.38782231229011       -1.31273878622034       -0.64483102376578
O            5.03717466589804       -1.33588190541707        0.36937087778577
H            2.71882626873719        0.03434400095163        1.05150174694488
H            1.88266619508167       -0.68186519784753       -2.75232649469653
H            3.73957756300353       -1.94033036631058       -3.83642690349704
