13
 energy: -28.914788843037 gnorm: 0.000035436185 xtb: 6.7.0 (08769fc)
C            1.40905236826648        0.44314310377913       -0.22405222638407
C            2.54946940768232       -0.48641943165625        0.00760499507120
O            2.88965323050760       -0.97813726641534        1.04461349171861
C            3.31171453671627       -0.79672991138523       -1.31725697995021
O            2.78696450160147       -1.30195108548986       -2.26644338641107
C            4.74290023086798       -0.30311058308803       -1.20816530283643
O            5.65356512133040       -0.94020645012980       -0.74945285218730
C            4.86932497218745        1.15050278696728       -1.64672017843289
O            4.05523256317805        1.99953842848229       -1.41899012676137
H            0.84291371275603        0.57895347015674        0.69424812727433
H            0.77359020461534        0.04070238741171       -1.01272456043755
H            1.79481113592519        1.40354103398297       -0.56958111511704
H            5.79331801436545        1.33899351738454       -2.22082988554613
