14
 energy: -24.443430198798 gnorm: 0.000012978620 xtb: 6.7.0 (08769fc)
O            2.05203409158619       -0.67806265645068       -0.05224287154251
C            2.08691491684019        0.66744030740623       -0.05451582198173
C            0.98533453417549        1.46362866464695       -0.03140743690268
C           -0.26453981710795        0.81537917656134       -0.00330786584071
C           -1.58237584548105        1.16265784073943        0.02545643246665
C           -2.35524771811562       -0.03901332928745        0.04349811397114
C           -1.54720797490028       -1.14295856054347        0.02671608204050
C           -0.20549557928954       -0.67728241883560       -0.00317606491921
N            0.89084661506554       -1.35660488975530       -0.02627571966458
H            3.10414609391482        1.02521642043004       -0.07726844773575
H            1.08019579779836        2.53747912516426       -0.03465027974295
H           -1.98660258012508        2.15771409926127        0.03348901443880
H           -3.43115221890123       -0.05622014970010        0.06717485537736
H           -1.84177031545984       -2.17349362963690        0.03415001003569
