12
 energy: -25.344009325489 gnorm: 0.000064886571 xtb: 6.7.0 (08769fc)
O            1.24619812818300       -0.05275202121081        0.65881153493647
C            2.37268403051715       -0.02765428336990        0.25166372419571
C            3.22156835103226        1.19608337450513       -0.03350753718050
C            4.52239044187708        0.61622504574018       -0.51274885119845
C            4.52939047571169       -0.72990066780469       -0.53971176359476
C            3.24253760181475       -1.26266054768334       -0.08546172315123
O            2.89703832845339       -2.41316957408299        0.01733912164829
C            5.59743694342755        1.44755832283363       -0.88439065959475
N            6.46466658994516        2.13503586171850       -1.18376311773803
H            3.34623641402885        1.80566000946907        0.86635689264467
H            2.74989222401337        1.83367493481530       -0.78709982161768
H            5.34789047099575       -1.35803045493008       -0.84605779934974
