18
 energy: -24.458522636661 gnorm: 0.000041668484 xtb: 6.7.0 (08769fc)
C            1.28014890467581       -0.41470598384329       -0.87204136515999
C            2.50297060514133        0.07660121186605       -0.15931138322896
C            3.08410502263803       -0.55181121224088        1.04762857957068
C            3.99150221880773        0.57404947695665        1.51901122444721
C            3.06755690355305        1.85335343370239        1.36985608086042
C            2.85599831615391        1.57614107603732       -0.11317405018816
C            4.20031739272510        1.64172723456253       -0.55289683003565
C            4.69762326178815        0.39562966791985        0.07390033514904
N            3.74969480962690       -0.69558924475553       -0.25299913813418
H            0.38571889994741       -0.00884089262098       -0.40168086378939
H            1.24241924363959       -1.50103906156540       -0.83928610356219
H            1.30271270504844       -0.09627179404326       -1.91286930693590
H            2.67756557417200       -1.37615681567057        1.60848269948480
H            4.55882401423888        0.44824915781413        2.43892187013589
H            3.58223126340045        2.78775846318982        1.58177783613465
H            2.17242355927408        1.76244624751089        1.98519676396359
H            4.78451805431259        2.53718520240838       -0.66263365662306
H            5.74668925085655        0.12330383277189        0.02463730791118
