13
 energy: -23.529796239678 gnorm: 0.000074446259 xtb: 6.7.0 (08769fc)
N            1.06187181429557        0.07824035645935       -0.06664041821787
C            2.38473318698833        0.10642194268428       -0.01865247102783
N            3.09650079298177       -0.53460842811718        0.86310117822341
C            4.48834442598217       -0.49951952040340        0.90538366170127
C            5.37275036462016       -1.13123956941851        1.78375994536683
N            6.59957555242756       -0.77725711640359        1.39971656017095
N            6.47799980109104        0.02116647258814        0.35220172863994
N            5.22851164253169        0.21058983701092        0.02701715945925
H            0.56834446830951        0.59557907387569       -0.77364531676911
H            0.52573003205911       -0.45796252057255        0.59891419877090
H            2.93993225674440        0.68893993087682       -0.74354031076862
H            2.64828118373267       -1.10320948815307        1.57636776898844
H            5.18940447823603       -1.78026097042690        2.61791631546244
