14
 energy: -26.030491338050 gnorm: 0.000012963732 xtb: 6.7.0 (08769fc)
N            1.00996188961882        0.05827099048866       -0.07946261688737
C            2.27958136552710        0.06869138041464       -0.07754790822026
N            3.09791493942294       -1.06133365950884       -0.07524878001090
N            4.42283303714482       -1.07913840843077       -0.07330605939801
C            5.05704804437877        0.03956348105477       -0.07345946234558
C            4.37612917409882        1.30881848375733       -0.07565320750587
C            5.14877349814461        2.56070482944975       -0.07570722341058
O            6.35180480193032        2.63086207363040       -0.07398455684514
C            3.01715257750602        1.31354124225638       -0.07762416626636
H            0.58718524977716       -0.86579441122399       -0.07923204453424
H            2.66783706293372       -1.98057119158833       -0.07500712341027
H            6.13402646644155       -0.00185715018163       -0.07186117406442
H            4.51801780612715        3.47057022203303       -0.07753877606776
H            2.43531408694820        2.22265211784859       -0.07932690103322
