12
 energy: -24.622571274605 gnorm: 0.000138259633 xtb: 6.7.0 (08769fc)
N            0.91588145230660        0.07639424893852        0.06088818310591
C            2.17737552372128        0.06957415753193        0.06323794255994
N            3.00692719167586       -1.05623836088193        0.06183495638444
N            4.32809902576652       -1.02973015744721        0.06431417904634
C            4.90660919111932        0.12509851445637        0.06840115374173
N            4.26542997135216        1.32146887793576        0.07034372404324
C            2.97189675535552        1.30933661629868        0.06791234847078
C            2.27168519705792        2.54556288204234        0.06988721624698
N            1.71559684175924        3.54678980474445        0.07164559355183
H            0.47315461972125       -0.83800140414219        0.05765694963698
H            2.59396600283229       -1.98498732530796        0.05861628150910
H            5.98374822733204        0.14819214583123        0.07040147170273
