18
 energy: -28.122113112026 gnorm: 0.000059897697 xtb: 6.7.0 (08769fc)
C            1.08785029175285        0.02087701948721        0.07040557837516
C            2.57322953391925       -0.04866635530483        0.06940155653894
N            3.33975079564955        1.03097853566931        0.05224637409920
N            4.60222745167783        0.60316493796253        0.06016579458650
C            4.68564602153386       -0.75263711109622        0.07258224393204
C            5.95796744872602       -1.53582842431611        0.06772153789002
N            5.72096433329031       -2.82163801863782        0.72026955874321
C            3.38091996300105       -1.20884068866446        0.08246642932038
O            2.95526842632222       -2.50174415562586        0.10567444577124
H            0.77333631785600        1.06042038119302        0.06143580321525
H            0.68947811024178       -0.47347181272605        0.95553959834668
H            0.68838358598011       -0.48842222720597       -0.80566600540407
H            5.35797401561123        1.26821830997314        0.03618878945948
H            6.75831934581426       -0.93939702957668        0.53796464043174
H            6.26222305553178       -1.74347927359619       -0.96623946137971
H            5.55312382753904       -2.68288521146360        1.71252997411323
H            6.53093666733107       -3.42409803423848        0.62430344498843
H            3.75561080822178       -3.04983084183295        0.18645969697228
