18
 energy: -28.411010421637 gnorm: 0.000083661932 xtb: 6.7.0 (08769fc)
C            0.98478021782728        0.04644640110416        0.00449798772764
N            2.44446645594606       -0.03997896485451       -0.17622168017569
C            2.96621729462432       -1.44207934860270       -0.43446498026017
C            4.44086895850647       -1.39372774404503       -0.57603508099948
C            5.25652870765862       -1.38172240614287       -1.66838087026889
C            6.62433682398371       -1.19012432210478       -1.19858480790003
O            7.67665286455452       -1.12318164584850       -1.89626558712489
C            6.46565886747382       -1.07726570764117        0.18486827992352
O            5.15048046149688       -1.19513192126190        0.56855223580295
H            0.68761879286735        1.07636093814821        0.19068101764099
H            0.68470439800000       -0.57069241462318        0.84905068052702
H            0.48541324698065       -0.31394950261727       -0.89267504201472
H            2.93406429148501        0.30230548301164        0.66120084706776
H            2.74651200068310        0.55155563718232       -0.96080091150441
H            2.50588084425792       -1.81836489257877       -1.34699165200233
H            2.66960358847416       -2.05371857234779        0.42018292578314
H            4.95973542878164       -1.52129936246556       -2.69089469414287
H            7.18227675639856       -0.94190165431229        0.97160133192048
