13
 energy: -26.668356812512 gnorm: 0.000085269348 xtb: 6.7.0 (08769fc)
N            0.88809037233808        0.03400402959110       -0.06201015930770
C            2.15055847865407        0.01271957499828       -0.06166770188928
N            2.92303236480851       -1.13184842191366       -0.06192109445552
C            4.28099690996182       -1.13482275571787       -0.06166179171322
C            5.02190804713913       -0.00832860239870       -0.06118916660134
C            4.41745550063189        1.30050070276748       -0.06103203109460
O            5.03605479623684        2.35083693840427       -0.06069078128622
C            2.87913669876019        1.33834622686299       -0.06076317814560
O            2.28281860624150        2.38390241810837       -0.06013761449241
H            0.42374244495499       -0.87155238721654       -0.06240825013066
H            2.43317983942579       -2.01957980730139       -0.06238887281098
H            4.74302104781305       -2.11202282374228       -0.06197082993418
H            6.09878489303413       -0.05671509244203       -0.06104852813828
