18
 energy: -28.429794996238 gnorm: 0.000078471686 xtb: 6.7.0 (08769fc)
O            3.05058419344490        0.84342728731808       -0.89195202640917
C            3.64241449384243        1.33154722046709        0.03422611156427
C            4.17970472290926        0.55972242502212        1.22860786332963
O            4.49087892103438        1.14300943802657        2.24142281110984
C            4.23668383896653       -0.92806119847869        1.01425651539543
N            4.78764952448275       -1.64450212003987        2.11739389107325
C            4.81450463494335       -3.10624866835874        2.08822608602175
C            4.43385659456102       -3.12180447093356        3.57413454781376
C            4.11527451103398       -1.62997242683308        3.41630419309849
H            3.85054217710395        2.41512582704969        0.09883396290290
H            4.83478586228372       -1.12767217038774        0.11747744155802
H            3.19510195273154       -1.22465697643596        0.76836410960498
H            5.79353855934360       -3.50844948015754        1.82245380577133
H            4.05074378814189       -3.55020381908484        1.43805614466693
H            5.27569644809993       -3.31464878323386        4.23264204891584
H            3.59914476046398       -3.76201242853739        3.84652701202339
H            4.57436263692287       -0.94007533093195        4.12464359807496
H            3.04126237968993       -1.41568432447029        3.35125188348431
