16
 energy: -27.447700134754 gnorm: 0.000067398062 xtb: 6.7.0 (08769fc)
C            0.91024427248883       -0.02458942415835        0.11049364811836
C            2.39217688188011        0.02069511574713        0.00369003581965
C            3.08609370677042        1.19726308418800       -0.06995528920299
C            4.48553670479413        1.19269617268612       -0.16910731780194
N            5.23891557735298        2.31459758770547       -0.24623777069303
O            5.14794106491938        0.05928709954260       -0.19240829407518
C            4.50523441886720       -1.11852743694894       -0.12265903798065
C            3.10593295761522       -1.26301235020983       -0.02079651696228
O            2.52579810975746       -2.36382207677384        0.04289543218464
H            0.47071568308837        0.96917414438416        0.12344796455331
H            0.63424053833982       -0.56798985468578        1.01433181467693
H            0.50981409662253       -0.60015582906665       -0.72423552587873
H            2.57088191580323        2.14637559784621       -0.05290375186985
H            4.80430548907321        3.21725753379653       -0.23361873288151
H            6.23764873826574        2.23702453636769       -0.31446980319506
H            5.17331984436136       -1.96392390042053       -0.15252685481165
