16
 energy: -28.960723347046 gnorm: 0.000076418349 xtb: 6.7.0 (08769fc)
C            0.89453667424592       -0.00418327437868        0.06385903495007
N            2.33739226653256       -0.00642855792864        0.00064421461630
C            3.04095709216597       -0.03770496383633       -1.11592461813636
N            2.46903832463911       -0.07121430947892       -2.31351347033338
C            4.48613995045290       -0.03561828260885       -1.04726800174645
C            5.18037069932376        0.00026389638401        0.20523151421507
O            4.66580518951697        0.03187227745160        1.32098896788517
N            5.08769359206087       -0.06960167788101       -2.25469094906622
O            6.34258617588796       -0.07184449651226       -2.34253271727721
H            0.59486508869321        0.02505724953468        1.10725516611543
H            0.48395448321803       -0.90797393238372       -0.39238603768053
H            0.48468141658809        0.87312256189087       -0.44205251260683
H            2.89187717073708        0.01769933346634        0.86056008929171
H            1.47173779661425       -0.07497596415948       -2.43864768553097
H            3.09486398476150       -0.09339922826612       -3.10539449240353
H            6.27760009456182       -0.00231063129349        0.09804149770774
