17
 energy: -29.104299546290 gnorm: 0.000039160768 xtb: 6.7.0 (08769fc)
C            1.11772789812408        0.00074179256717        0.09896202739313
C            2.63586395088140       -0.09248114441618       -0.07016611834816
O            3.14878518089754       -1.21700879478171        0.62191420857702
C            4.29993775969157       -0.89302088420173        1.37910277050944
C            5.57417390938477       -1.48395121931997        0.75423897389121
C            4.40387112911853        0.60942699855753        1.43336992303380
O            5.17044983399530        1.27560865674383        2.07700803214755
C            3.34387697224805        1.13073608379616        0.45570691055184
O            3.13767253006897        2.28127611416791        0.17350417208296
H            0.65192271109474       -0.88945200370195       -0.31307113202372
H            0.75101843266428        0.88260904316245       -0.41923782155167
H            0.86741252437810        0.07253997633272        1.15464061550034
H            2.87242236252550       -0.18909237861969       -1.14380806056980
H            4.16829803295596       -1.30769665488244        2.38710842524826
H            5.71936271108339       -1.08760035900375       -0.24838394344486
H            5.47478706610129       -2.56397005133008        0.69545544160934
H            6.43224699478652       -1.22651517507029        1.36900557539329
