18
 energy: -28.431232745371 gnorm: 0.000100146376 xtb: 6.7.0 (08769fc)
C            0.99682514750169        0.06460724649382        0.32095442383259
N            2.41438338158562        0.11173561538101        0.07834428694186
C            3.23032710559884       -0.97581321232889        0.62168008889981
C            4.22692430231980        0.06487790926121        1.18167673488834
C            3.19482534467483        1.12885332259074        0.79200291618116
C            5.54277102761624        0.13034951176549        0.47382281762258
O            5.95487714649334        1.07294631108190       -0.16064916880897
C            6.40117668727651       -1.12410374621181        0.61489546940404
O            6.17004033383528       -2.02535484243584        1.37290282242376
H            0.57748846837359       -0.78369575703564       -0.21866569295489
H            0.54853848322991        0.98101239843660       -0.06035812891746
H            0.74697254487993       -0.03576164134783        1.38922115106482
H            3.61336878261174       -1.64972920149903       -0.14682979440841
H            2.73766359642792       -1.56513525513487        1.40378927924193
H            4.42583253165117       -0.04945501767105        2.24914565211699
H            3.56736423893371        1.91642215184712        0.13405249634095
H            2.67715499958133        1.57438413166697        1.64811851067327
H            7.28759587740842       -1.11299992485985       -0.04557386454224
