16
 energy: -27.082295594568 gnorm: 0.000050495194 xtb: 6.7.0 (08769fc)
C            1.02645471197023        0.14026038678964       -0.00223836047787
C            2.51532192944588        0.02872572884254       -0.03289804005085
C            3.21350603066543       -1.14744858384644       -0.09825383929721
N            2.61650771916689       -2.39104361364411       -0.07049672831787
N            4.58263910717732       -1.14443481610095       -0.11735146015794
C            5.19572441406371       -0.01528657354364       -0.06512722955560
C            4.52014928560273        1.27224180749924        0.00064165394374
N            5.04222594928697        2.43743316689020        0.04415888460037
O            3.16047002802583        1.22083905563669        0.00867741228934
H            0.62183330683671       -0.43573490818522        0.82863308895539
H            0.59149612560148       -0.23901289677699       -0.92750068221351
H            0.75283070969354        1.18532896410996        0.11365999887240
H            1.70376174849461       -2.45796334526932       -0.49166333231086
H            3.24856859523326       -3.13571129377191       -0.32328616822786
H            6.27808538654836       -0.03095071462497       -0.07955100137792
H            6.05717495218692        2.41651763599521        0.03482580332641
