13
 energy: -24.716502287376 gnorm: 0.000036095662 xtb: 6.7.0 (08769fc)
O            2.04906803189355       -0.63058058181829       -0.03368885078524
C            1.99471319836549        0.71094654954973       -0.04284519445182
N            0.95435792301788        1.45827392132983       -0.02959378391851
C           -0.22892093030697        0.79170126134713       -0.00322702289272
C           -1.52954380099505        1.17394327323581        0.01793044908897
C           -2.33024724220708       -0.01955479923162        0.04108991816506
C           -1.55366263552592       -1.14264268326657        0.03500932596946
C           -0.19962039818396       -0.70803585634730        0.00723317621850
N            0.90125070979829       -1.37310837264940       -0.00749525894374
H            2.98298793857867        1.14798224206010       -0.06375986322535
H           -1.90915085679123        2.17712400829882        0.01767796558132
H           -3.40603381488995       -0.00825765233955        0.06066681426870
H           -1.87282812275372       -2.16579131016867        0.04830232492536
