13
 energy: -24.272860680353 gnorm: 0.000105967002 xtb: 6.7.0 (08769fc)
N            1.07011757400327        0.07256807189796        0.05390452408838
C            2.41224154377608       -0.04989155263800       -0.06153832337312
O            3.08705458504317        1.07574690379983       -0.11669702542535
C            4.42019104796471        1.09000005018712       -0.23072499116451
C            5.22855772695646       -0.07220814284779       -0.30181646167799
O            6.46729106677412       -0.05040101374800       -0.40677936213545
C            4.44455232236044       -1.29894297679196       -0.23777881466346
C            3.08700025227963       -1.28272118545888       -0.12232424257829
H            0.65643639644159        0.98692638559992        0.09209419684118
H            0.49039055898384       -0.74350236809121        0.10151211451912
H            4.83148561218746        2.08621987548634       -0.26370180150279
H            4.98610648274079       -2.23190465857546       -0.28617597325730
H            2.51238483048845       -2.19506938881987       -0.07570383967042
