13
 energy: -25.104800074445 gnorm: 0.000032330515 xtb: 6.7.0 (08769fc)
O            0.90599279201028       -0.05114889463974        0.02264091582172
C            2.11524858044040       -0.05653466426780        0.01596666187093
C            3.02287975869101       -1.26348540830553        0.01254821498456
C            4.30911889914502       -0.89486577731904        0.00472476429213
C            4.36720879267362        0.57274035706557        0.00236527163219
C            3.07157683941128        1.05745784409907        0.00903917791864
O            3.06462011827515        2.39876295616227        0.00719807327206
C            4.34834284669926        2.77456905383585       -0.00060963758084
C            5.20790391364142        1.69501070937006       -0.00393696347375
H            2.62612812518458       -2.26163544150573        0.01618002350170
H            5.17116133593812       -1.53749509966625        0.00074694010906
H            4.55059490077572        3.82853030855965       -0.00321526883821
H            6.27791309711413        1.73319405661163       -0.01000817351020
