13
 energy: -28.154160798657 gnorm: 0.000062062031 xtb: 6.7.0 (08769fc)
O            1.15995249136827       -0.16152424511076       -0.14531317533758
C            2.49923291487945       -0.03633440419391       -0.00936037356708
C            3.16087464531281        1.14891613095640        0.09878421172172
N            4.52335694667305        1.14387279141285        0.23185205600808
C            5.28933972249551       -0.01617283337113        0.26454592847998
N            6.55052020884612       -0.08948596275209        0.38549110438964
C            4.44786009501701       -1.20117607282616        0.13897257811176
F            5.06466693771952       -2.38193587295956        0.15645147502635
N            3.17687985519830       -1.21646565479719        0.01382125022528
H            0.73847482544017        0.70757270064225       -0.15511030509912
H            2.67245690003972        2.11052053833109        0.08629298116281
H            5.00870986241352        2.02858152783069        0.31147207424980
H            7.02622459459655        0.80501135683753        0.46444019462838
