13
 energy: -24.723947713701 gnorm: 0.000026158926 xtb: 6.7.0 (08769fc)
O            0.86074642198061       -1.31862460580280        0.00147269913116
N            2.03716305218557       -0.66930235661793        0.00177000304030
C            2.06475734518051        0.62928638742376        0.00134430318247
C            0.93335412558058        1.47609356398079        0.00056464040648
C           -0.28323387252924        0.85079186584255        0.00024068903218
C           -1.65673591726143        1.15773563198921       -0.00046395164716
C           -2.30523768837257       -0.05490413087097       -0.00033611125619
N           -1.46816881701526       -1.14102474148232        0.00039580186760
C           -0.26570721240061       -0.63501709278276        0.00074968611983
H            3.06405865217295        1.03698464072315        0.00162655716297
H            1.04725589464113        2.54929092539309        0.00025152503057
H           -2.10063333365282        2.13224788510410       -0.00098542647521
H           -3.36545865050942       -0.23164797289988       -0.00074041559500
