  11
         -2.13522650
 C          2.0412469207        0.0002210778        0.0024825170
 N          0.5801011357        0.0006643127       -0.0039322713
 N         -0.1109961063       -1.1347081575       -0.0009338164
 C         -1.3455720070       -0.7075276311        0.0012112752
 C         -1.3464991871        0.7062004976        0.0012082879
 N         -0.1126108117        1.1352283727       -0.0008494430
 H          2.4124527976       -0.6710149348       -0.7677822236
 H          2.4043336054       -0.3342324987        0.9711766763
 H          2.4107795602        1.0044297756       -0.1901158590
 H         -2.2122169597       -1.3548467907        0.0041903809
 H         -2.2140238638        1.3523837127        0.0035423324
