  11
  -2.13522650000000       0.333823802963380      !
 C          2.0412469207        0.0002210778        0.0024825170
 N          0.5801011357        0.0006643127       -0.0039322713
 N         -0.1109961063       -1.1347081575       -0.0009338164
 C         -1.3455720070       -0.7075276311        0.0012112752
 C         -1.3464991871        0.7062004976        0.0012082879
 N         -0.1126108117        1.1352283727       -0.0008494430
 H          2.4124527976       -0.6710149348       -0.7677822236
 H          2.4043336054       -0.3342324987        0.9711766763
 H          2.4107795602        1.0044297756       -0.1901158590
 H         -2.2122169597       -1.3548467907        0.0041903809
 H         -2.2140238638        1.3523837127        0.0035423324
  11
  -2.13522466000000       0.333174454182763      !
 C          2.0412290982        0.0017323043       -0.0005203787
 N          0.5800762966       -0.0002325139        0.0006339805
 N         -0.1117457531       -1.1354074922        0.0001283520
 C         -1.3459921525       -0.7073922795       -0.0001703986
 C         -1.3460273686        0.7063299496       -0.0001366299
 N         -0.1118569608        1.1345625835        0.0001933907
 H          2.4073501295        0.4877383892       -0.9012970667
 H          2.4111250818       -1.0202013887        0.0296040098
 H          2.4089172144        0.5406255533        0.8692191220
 H         -2.2130239759       -1.3541808181       -0.0006473109
 H         -2.2131599262        1.3530070241       -0.0003003462
  11
  -2.13522417000000       0.333001742853857      !
 C          2.0412158232        0.0017114326       -0.0001677524
 N          0.5800691325       -0.0002126802        0.0001110751
 N         -0.1117349890       -1.1354087448        0.0000137952
 C         -1.3459641945       -0.7073770821       -0.0000107825
 C         -1.3460193167        0.7063237065        0.0000296470
 N         -0.1118718845        1.1345717508        0.0000750572
 H          2.4083196731        0.5186607712        0.8827939709
 H          2.4079566386        0.5099378755       -0.8885599753
 H          2.4110270804       -1.0206885907        0.0047648754
 H         -2.2130264368       -1.3541072414       -0.0001032849
 H         -2.2131819846        1.3529423500        0.0001003144
