11
 energy: -17.726283648634 gnorm: 0.000059314268 xtb: 6.7.0 (08769fc)
C            2.03400654439134       -0.00192037083322        0.00342586804517
N            0.60175007569209       -0.00314556000262       -0.00470742489116
N           -0.10570541222000       -1.10618855572143       -0.00135435172779
C           -1.36807659201626       -0.69753021234577        0.00217511968874
C           -1.36582681024980        0.69859919398349        0.00132018972418
N           -0.10169795791042        1.10231062404872       -0.00287755463759
H            2.40315188690345       -0.67624332699676       -0.76866579961479
H            2.40506651078580       -0.33768643820400        0.97333127444620
H            2.36900194134226        1.01488793782906       -0.18744202573572
H           -2.18463649120291       -1.38902671449043        0.00335521464426
H           -2.18003861151555        1.39274115903296        0.00163734645849
