  15
         -2.68120566
 C         -3.3562156493       -0.3338415025        0.1696176193
 C         -1.9811602962       -0.1048051776       -0.0396122589
 C         -0.7970679197        0.0924309838       -0.2181137551
 C          0.5985830834        0.3252532134       -0.4149590256
 C          1.0773343119        1.6304014447        0.2229075890
 C          1.4426855624       -0.8200031677        0.0725066158
 O          2.6370001075       -0.8032935773        0.1081332444
 H         -3.8267266605       -0.7698799311       -0.7140883579
 H         -3.8849302069        0.5938062252        0.3984763826
 H         -3.5236942485       -1.0203436710        1.0021752414
 H          0.7588457992        0.3935741097       -1.5052706356
 H          0.5318251489        2.4915296093       -0.1649828048
 H          2.1417002332        1.7852722334        0.0416341339
 H          0.9300620250        1.5999639803        1.3023629183
 H          0.9519708315       -1.7299617322        0.3976745467
