  15
         -2.68120566
 C         -3.3562156493       -0.3338415025        0.1696176193
 C         -1.9811602962       -0.1048051776       -0.0396122589
 C         -0.7970679197        0.0924309838       -0.2181137551
 C          0.5985830834        0.3252532134       -0.4149590256
 C          1.0773343119        1.6304014447        0.2229075890
 C          1.4426855624       -0.8200031677        0.0725066158
 O          2.6370001075       -0.8032935773        0.1081332444
 H         -3.8267266605       -0.7698799311       -0.7140883579
 H         -3.8849302069        0.5938062252        0.3984763826
 H         -3.5236942485       -1.0203436710        1.0021752414
 H          0.7588457992        0.3935741097       -1.5052706356
 H          0.5318251489        2.4915296093       -0.1649828048
 H          2.1417002332        1.7852722334        0.0416341339
 H          0.9300620250        1.5999639803        1.3023629183
 H          0.9519708315       -1.7299617322        0.3976745467
  15
         -2.68108584
 C         -3.1356967322       -0.5264820920        0.3383540610
 C         -1.8221975598       -0.1507475302       -0.0085762245
 C         -0.6887732405        0.1692027198       -0.3018310879
 C          0.6557530381        0.5279138469       -0.6158207477
 C          1.1556396302        1.7048728907        0.2233016578
 C          1.5754540734       -0.6497353743       -0.4387390805
 O          1.9564828050       -1.0392844918        0.6242819479
 H         -3.6934496963       -0.8785458338       -0.5320951419
 H         -3.6903575187        0.3111455456        0.7667928501
 H         -3.1365624820       -1.3318014312        1.0759647447
 H          0.6693820754        0.8240986583       -1.6797054612
 H          0.5119735391        2.5786081974        0.1138498212
 H          2.1713384465        1.9883856265       -0.0549160862
 H          1.1701448805        1.4283862347        1.2776822272
 H          1.8698576569       -1.2334546068       -1.3046744526
  15
         -2.67997587
 C         -3.1080401921       -0.6087252281        0.1372752669
 C         -1.7773150759       -0.1787153679       -0.0387445341
 C         -0.6281550210        0.1819795000       -0.1875035811
 C          0.7328344319        0.5784024507       -0.3449054094
 C          0.9991934855        2.0067068052        0.1428193567
 C          1.6561479386       -0.4086831506        0.3138917916
 O          1.8591130808       -1.5139802018       -0.0931897258
 H         -3.3398877766       -1.4584487615       -0.5082205852
 H         -3.8193692938        0.1857830903       -0.0975380148
 H         -3.2919911199       -0.9206091356        1.1675066563
 H          0.9486453588        0.5308056318       -1.4267076450
 H          0.7884672829        2.0911784156        1.2087503471
 H          0.3663113449        2.7275170407       -0.3756763543
 H          2.0393393518        2.2940315070       -0.0142126913
 H          2.1238416586       -0.1381038220        1.2532529146
  15
         -2.67997263
 C         -3.1079924808       -0.6101414387        0.1376586690
 C         -1.7781684015       -0.1777145241       -0.0397460077
 C         -0.6293178404        0.1839405198       -0.1899014271
 C          0.7325347977        0.5783931216       -0.3441003136
 C          1.0010306928        2.0062904587        0.1430549510
 C          1.6503480541       -0.4110971017        0.3186799693
 O          1.8646405511       -1.5117588875       -0.0966855890
 H         -3.6754061972        0.0866742729        0.7580815720
 H         -3.1446426437       -1.5872348915        0.6240168547
 H         -3.6302552417       -0.6998074352       -0.8171147693
 H          0.9518721464        0.5299576229       -1.4250744438
 H          0.7917655951        2.0913038518        1.2092683882
 H          0.3682412128        2.7276737858       -0.3747992163
 H          2.0413045272        2.2926910780       -0.0153653618
 H          2.0989841526       -0.1489448989        1.2701132585
