  15
  -2.68120566000000       5.009200200246920E-002 !
 C         -3.3562156493       -0.3338415025        0.1696176193
 C         -1.9811602962       -0.1048051776       -0.0396122589
 C         -0.7970679197        0.0924309838       -0.2181137551
 C          0.5985830834        0.3252532134       -0.4149590256
 C          1.0773343119        1.6304014447        0.2229075890
 C          1.4426855624       -0.8200031677        0.0725066158
 O          2.6370001075       -0.8032935773        0.1081332444
 H         -3.8267266605       -0.7698799311       -0.7140883579
 H         -3.8849302069        0.5938062252        0.3984763826
 H         -3.5236942485       -1.0203436710        1.0021752414
 H          0.7588457992        0.3935741097       -1.5052706356
 H          0.5318251489        2.4915296093       -0.1649828048
 H          2.1417002332        1.7852722334        0.0416341339
 H          0.9300620250        1.5999639803        1.3023629183
 H          0.9519708315       -1.7299617322        0.3976745467
  15
  -2.68120351000000       4.997816628552292E-002 !
 C         -3.3558983912       -0.3380014861        0.1646170555
 C         -1.9811485917       -0.1041532326       -0.0414816484
 C         -0.7966133317        0.0944776345       -0.2155731364
 C          0.5997490012        0.3266012957       -0.4076726269
 C          1.0754350316        1.6375627761        0.2204322023
 C          1.4422215360       -0.8140311734        0.0931476741
 O          2.6375510099       -0.8150825610        0.0888093202
 H         -3.8741858131        0.5730161168        0.4710001349
 H         -3.5200680315       -1.0859311618        0.9431905865
 H         -3.8397386602       -0.7002554998       -0.7448205416
 H          0.7651030682        0.3856058577       -1.4977744231
 H          0.9201421531        1.6182518191        1.2991615046
 H          0.5335575655        2.4951247450       -0.1800870332
 H          2.1413331958        1.7896930485        0.0449130987
 H          0.9490961170       -1.6995613684        0.4774327717
  15
  -2.68120226000000       4.991210169122826E-002 !
 C         -3.3564172942       -0.3423991833        0.1573679653
 C         -1.9810472221       -0.1039708328       -0.0397359112
 C         -0.7964844916        0.0971571268       -0.2106551170
 C          0.6005178415        0.3276787097       -0.4009779061
 C          1.0757520901        1.6434782477        0.2170859329
 C          1.4422839042       -0.8090179172        0.1089388911
 O          2.6367880580       -0.8245864657        0.0733569269
 H         -3.5223482022       -1.1361302107        0.8887882713
 H         -3.8453788955       -0.6451395521       -0.7708857972
 H         -3.8682924008        0.5508142369        0.5213418916
 H          0.7677667711        0.3778111077       -1.4911847035
 H          0.9246899987        1.6311291955        1.2964063950
 H          0.5302607339        2.4969998718       -0.1870913807
 H          2.1404232739        1.7971929690        0.0364718456
 H          0.9499861495       -1.6706408888        0.5433554047
  15
  -2.68120046000000       4.981712206482430E-002 !
 C         -3.3560319667       -0.3349239773        0.1677767106
 C         -1.9811659611       -0.1041982688       -0.0405359183
 C         -0.7967557870        0.0924934678       -0.2173312628
 C          0.5991032850        0.3254448841       -0.4120870191
 C          1.0757473560        1.6331305161        0.2221788874
 C          1.4429230769       -0.8175529916        0.0810237374
 O          2.6375212508       -0.8078648797        0.1001045693
 H         -3.9637742342        0.1636176879       -0.5902274128
 H         -3.6791347790        0.0358110408        1.1428395613
 H         -3.5918866311       -1.4004361375        0.1279319202
 H          0.7619015845        0.3902851750       -1.5022208193
 H          0.5329597825        2.4928427745       -0.1726647479
 H          2.1412035695        1.7861963524        0.0455332111
 H          0.9227820385        1.6080446965        1.3010496609
 H          0.9507699235       -1.7189169812        0.4297698843
  15
  -2.68119961000000       4.977233342243204E-002 !
 C         -3.3574346563       -0.3328377987        0.1648939801
 C         -1.9814855229       -0.1049473565       -0.0406843074
 C         -0.7966167875        0.0903994066       -0.2161749368
 C          0.5996573705        0.3239334648       -0.4088277445
 C          1.0732644525        1.6345420226        0.2218568450
 C          1.4445284729       -0.8159310418        0.0900389188
 O          2.6396498011       -0.8099190305        0.0908548568
 H         -3.9334527558       -0.1448539302       -0.7436845814
 H         -3.7570315259        0.3169051808        0.9464386006
 H         -3.5494356429       -1.3645989552        0.4668228755
 H          0.7644380010        0.3850190289       -1.4988761459
 H          0.9198781126        1.6121219576        1.3006790557
 H          0.5284762243        2.4916872015       -0.1755911977
 H          2.1384106273        1.7898006035        0.0452008028
 H          0.9524711165       -1.7051468274        0.4677597912
  15
  -2.68119623000000       4.959463077277337E-002 !
 C         -3.3560970966       -0.3338489875        0.1661963610
 C         -1.9808340320       -0.1049704895       -0.0420054393
 C         -0.7961677732        0.0908757734       -0.2182507087
 C          0.6000683991        0.3252372526       -0.4084460263
 C          1.0719711156        1.6364436467        0.2220848312
 C          1.4437174234       -0.8143972800        0.0924382401
 O          2.6390270583       -0.8134903185        0.0892324706
 H         -3.6888377972        0.0810602296        1.1199574221
 H         -3.5856324480       -1.4014394246        0.1756332526
 H         -3.9607143642        0.1242808470       -0.6193550889
 H          0.7670294604        0.3857040857       -1.4981939367
 H          0.9148846747        1.6155423336        1.3004535073
 H          0.5286687199        2.4932026245       -0.1783546218
 H          2.1377546374        1.7912230624        0.0486150048
 H          0.9516122787       -1.7017750380        0.4748490628
  15
  -2.68119612000000       4.958885822268881E-002 !
 C         -3.3574329852       -0.3340845299        0.1594202952
 C         -1.9811514696       -0.1057853514       -0.0415940495
 C         -0.7956437774        0.0896991587       -0.2127314209
 C          0.6005668578        0.3248148145       -0.4019437901
 C          1.0701239355        1.6412545588        0.2196721638
 C          1.4454603773       -0.8097702218        0.1079053210
 O          2.6399810612       -0.8208599660        0.0733054302
 H         -3.9139191625        0.6040134929        0.2132520155
 H         -3.5397438168       -0.8769260246        1.0893712693
 H         -3.7867983912       -0.9237771393       -0.6532802473
 H          0.7695167467        0.3770442660       -1.4917990315
 H          2.1346046707        1.7994969151        0.0412217992
 H          0.9171290212        1.6256895162        1.2987261174
 H          0.5217415685        2.4934677274       -0.1834901709
 H          0.9558508050       -1.6751216665        0.5394529665
  15
  -2.68119509000000       4.953483875286253E-002 !
 C         -3.3571606765       -0.3392182150        0.1592470614
 C         -1.9810964510       -0.1041088322       -0.0376585647
 C         -0.7964111004        0.0947788673       -0.2106244665
 C          0.5995727648        0.3266072865       -0.4053181760
 C          1.0769338947        1.6392094866        0.2185327266
 C          1.4424508479       -0.8130007095        0.0966305958
 O          2.6372691993       -0.8166647899        0.0846651728
 H         -3.7789967370       -0.9382363713       -0.6506251316
 H         -3.9193132329        0.5958769596        0.2020832117
 H         -3.5413445704       -0.8751666635        1.0926215359
 H          0.7632148494        0.3825901626       -1.4958972223
 H          0.9273956550        1.6213721074        1.2981048471
 H          0.5313294086        2.4951578062       -0.1804446300
 H          2.1415677855        1.7928474643        0.0371321990
 H          0.9493770521       -1.6949754460        0.4883626493
  15
  -2.68119195000000       4.937052091205547E-002 !
 C         -3.3529011205       -0.3436603494        0.1713704596
 C         -1.9804564208       -0.1016321218       -0.0412874194
 C         -0.7972167855        0.1001710950       -0.2204065556
 C          0.5992855286        0.3292121627       -0.4148485465
 C          1.0814925331        1.6338376042        0.2215851825
 C          1.4380323699       -0.8185148293        0.0759877972
 O          2.6326561830       -0.8092906187        0.1071898798
 H         -3.5185734991       -0.9235481571        1.0817955472
 H         -3.7926735941       -0.9030688008       -0.6570869074
 H         -3.9121303090        0.5891044763        0.2702976482
 H          0.7620070748        0.3954742315       -1.5049157545
 H          2.1474558353        1.7829319387        0.0446566719
 H          0.9293696951        1.6070476326        1.3006133111
 H          0.5412867868        2.4962829496       -0.1707782862
 H          0.9426814635       -1.7239664625        0.4077285006
  15
  -2.68117686000000       4.858842545806472E-002 !
 C         -3.3544823568       -0.3405670008        0.1695635120
 C         -1.9810904934       -0.1014818316       -0.0388305183
 C         -0.7972763813        0.0965017399       -0.2185187497
 C          0.5985990733        0.3274374814       -0.4147436946
 C          1.0814189646        1.6321066023        0.2218654921
 C          1.4393250767       -0.8198390597        0.0733076596
 O          2.6342685581       -0.8052896333        0.1087137888
 H         -3.5281466167       -1.3409077966        0.5717872641
 H         -3.9182439550       -0.2601123997       -0.7622697978
 H         -3.7831682527        0.3748144656        0.8745349363
 H          0.7592146905        0.3951672743       -1.5050455285
 H          0.5338047558        2.4935566203       -0.1618940879
 H          2.1444659139        1.7871776404        0.0339101984
 H          0.9413201608        1.6005830948        1.3020223754
 H          0.9453434596       -1.7309034878        0.3921827858
  15
  -2.68108584000000       4.412685035527313E-002 !
 C         -3.1356967322       -0.5264820920        0.3383540610
 C         -1.8221975598       -0.1507475302       -0.0085762245
 C         -0.6887732405        0.1692027198       -0.3018310879
 C          0.6557530381        0.5279138469       -0.6158207477
 C          1.1556396302        1.7048728907        0.2233016578
 C          1.5754540734       -0.6497353743       -0.4387390805
 O          1.9564828050       -1.0392844918        0.6242819479
 H         -3.6934496963       -0.8785458338       -0.5320951419
 H         -3.6903575187        0.3111455456        0.7667928501
 H         -3.1365624820       -1.3318014312        1.0759647447
 H          0.6693820754        0.8240986583       -1.6797054612
 H          0.5119735391        2.5786081974        0.1138498212
 H          2.1713384465        1.9883856265       -0.0549160862
 H          1.1701448805        1.4283862347        1.2776822272
 H          1.8698576569       -1.2334546068       -1.3046744526
  15
  -2.68108539000000       4.410584269500954E-002 !
 C         -3.1346615114       -0.5285853621        0.3381523897
 C         -1.8220107954       -0.1501149397       -0.0086427779
 C         -0.6886265193        0.1705990973       -0.3011102661
 C          0.6559060310        0.5287125455       -0.6157929846
 C          1.1572298779        1.7055200991        0.2227605934
 C          1.5744569487       -0.6498063122       -0.4386391759
 O          1.9545162844       -1.0397109431        0.6244046564
 H         -3.6713060607       -0.9395350950       -0.5195653659
 H         -3.7105351731        0.3219619118        0.7089093387
 H         -3.1348653927       -1.2905732624        1.1204472360
 H          0.6692727237        0.8245576276       -1.6797038192
 H          1.1732764526        1.4289339823        1.2770594230
 H          0.5137553959        2.5793362739        0.1142062980
 H          2.1726051284        1.9887369569       -0.0567904966
 H          1.8661386562       -1.2353256854       -1.3040790232
  15
  -2.68108344000000       4.401492500901728E-002 !
 C         -3.1294715952       -0.5350287723        0.3399927543
 C         -1.8194751888       -0.1491818235       -0.0090042685
 C         -0.6873887709        0.1744134238       -0.3033668461
 C          0.6574786886        0.5322757891       -0.6166882216
 C          1.1589682161        1.7087790063        0.2222306746
 C          1.5747694824       -0.6470432038       -0.4385565119
 O          1.9425187952       -1.0456376544        0.6257953801
 H         -3.1618264848       -1.5744540249        0.6733171196
 H         -3.8127526434       -0.4408571892       -0.5065981786
 H         -3.5244442912        0.0811720959        1.1504417160
 H          0.6719752008        0.8279529362       -1.6806051217
 H          1.1734744486        1.4326368737        1.2766778146
 H          0.5164372777        2.5830938885        0.1125286178
 H          2.1749287781        1.9908333301       -0.0563825479
 H          1.8810041514       -1.2222180793       -1.3057067695
  15
  -2.68108313000000       4.400048870335371E-002 !
 C         -3.1337054901       -0.5309063353        0.3397585655
 C         -1.8231978230       -0.1482840948       -0.0107638767
 C         -0.6897067764        0.1730601460       -0.3021876384
 C          0.6557246953        0.5287989157       -0.6158858299
 C          1.1590500803        1.7047434021        0.2227552358
 C          1.5716033441       -0.6516110235       -0.4379216483
 O          1.9562015572       -1.0379217987        0.6245152767
 H         -3.5996139061        0.2011715875        1.0026842336
 H         -3.1413147261       -1.4927413380        0.8568469134
 H         -3.7704854368       -0.6276719061       -0.5420641197
 H          0.6704614142        0.8243557104       -1.6798478502
 H          1.1707499188        1.4294729802        1.2774732352
 H          0.5195339906        2.5810481010        0.1110278632
 H          2.1765031381        1.9833258243       -0.0539670929
 H          1.8558565121       -1.2430225334       -1.3018314803
  15
  -2.68108300000000       4.399443617794559E-002 !
 C         -3.1299784340       -0.5338921222        0.3399755012
 C         -1.8195800515       -0.1504426892       -0.0095360015
 C         -0.6873074226        0.1740790752       -0.3022825068
 C          0.6571501458        0.5323135710       -0.6170410831
 C          1.1593094333        1.7081949788        0.2222143833
 C          1.5743701831       -0.6471459797       -0.4392747826
 O          1.9436354662       -1.0449193132        0.6262618378
 H         -3.8730725667        0.1227859696       -0.1173666602
 H         -3.2805769138       -0.4976557805        1.4210484578
 H         -3.3470640856       -1.5530576014        0.0133631147
 H          0.6717563018        0.8285731404       -1.6807167839
 H          1.1694262822        1.4332346079        1.2768710252
 H          0.5199013731        2.5843362730        0.1095506507
 H          2.1767309007        1.9874744381       -0.0530861275
 H          1.8748966408       -1.2257355871       -1.3068167452
  15
  -2.68108277000000       4.398372990322781E-002 !
 C         -3.1327091202       -0.5293752403        0.3400544442
 C         -1.8204902974       -0.1518777111       -0.0106155341
 C         -0.6874150092        0.1710959243       -0.3019462005
 C          0.6568975084        0.5303870304       -0.6163497045
 C          1.1573102034        1.7071821363        0.2229352725
 C          1.5753202753       -0.6480737321       -0.4387947482
 O          1.9488176224       -1.0425264969        0.6248986372
 H         -3.3677522635       -0.2434629120        1.3674875084
 H         -3.2699444313       -1.6099382022        0.2615010917
 H         -3.8723149142       -0.0564608508       -0.3095063707
 H          0.6706198450        0.8264734277       -1.6801673632
 H          0.5142440734        2.5812199585        0.1130807539
 H          2.1732003268        1.9900476594       -0.0550111012
 H          1.1714157027        1.4308858846        1.2773154343
 H          1.8704512433       -1.2318865415       -1.3048476605
  15
  -2.68108139000000       4.391954694669394E-002 !
 C         -3.1289857375       -0.5355315562        0.3400095670
 C         -1.8191382923       -0.1495444966       -0.0092320894
 C         -0.6869296988        0.1743232475       -0.3028896341
 C          0.6576764609        0.5328257411       -0.6165744643
 C          1.1593079144        1.7094507118        0.2220281172
 C          1.5753045812       -0.6462309056       -0.4385774134
 O          1.9402826068       -1.0467301631        0.6257651035
 H         -3.3003184838       -0.4374397197        1.4140890529
 H         -3.3215247246       -1.5764244606        0.0715862702
 H         -3.8754300642        0.0778847466       -0.1689654689
 H          0.6718299304        0.8284309032       -1.6804551946
 H          1.1731376211        1.4338442872        1.2766364292
 H          0.5174814596        2.5842235181        0.1116522265
 H          2.1755303803        1.9907420618       -0.0561615891
 H          1.8855308925       -1.2186091358       -1.3060933823
  15
  -2.68107792000000       4.375857290083074E-002 !
 C         -3.1325344362       -0.5291921572        0.3397886725
 C         -1.8206990742       -0.1505818304       -0.0098547360
 C         -0.6870642048        0.1694775814       -0.3021836604
 C          0.6569003722        0.5299935038       -0.6164415714
 C          1.1553148614        1.7073998202        0.2231760008
 C          1.5773294856       -0.6467302097       -0.4388982719
 O          1.9478799857       -1.0441068249        0.6248636067
 H         -3.5780725115       -1.1730839590       -0.4214131053
 H         -3.7822805721        0.3408665370        0.4551240950
 H         -3.1486869352       -1.0782268350        1.2836810318
 H          0.6708067291        0.8262996319       -1.6801822142
 H          2.1735968247        1.9866635633       -0.0495840138
 H          1.1626004327        1.4334739669        1.2782318411
 H          0.5152220039        2.5828045716        0.1075820529
 H          1.8876436994       -1.2190872846       -1.3066407856
  15
  -2.68107667000000       4.370072979492143E-002 !
 C         -3.1296699527       -0.5365093445        0.3421871655
 C         -1.8227177321       -0.1457928598       -0.0117761546
 C         -0.6905042863        0.1779955686       -0.3055657747
 C          0.6561423070        0.5310250704       -0.6173882963
 C          1.1620491076        1.7045520195        0.2227609684
 C          1.5674180691       -0.6533851594       -0.4376737009
 O          1.9528992287       -1.0375416500        0.6263104823
 H         -3.7252483640        0.3156047409        0.6761649457
 H         -3.1211612198       -1.2676205620        1.1533396221
 H         -3.6510020378       -0.9911088314       -0.5029311623
 H          0.6743600648        0.8270671515       -1.6811729668
 H          0.5262591253        2.5832006737        0.1104050108
 H          2.1807169546        1.9795113749       -0.0518683280
 H          1.1709805624        1.4287164127        1.2771444034
 H          1.8440584981       -1.2503033416       -1.3009978843
  15
  -2.67997587000000       1.363314446100981E-002 !
 C         -3.1080401921       -0.6087252281        0.1372752669
 C         -1.7773150759       -0.1787153679       -0.0387445341
 C         -0.6281550210        0.1819795000       -0.1875035811
 C          0.7328344319        0.5784024507       -0.3449054094
 C          0.9991934855        2.0067068052        0.1428193567
 C          1.6561479386       -0.4086831506        0.3138917916
 O          1.8591130808       -1.5139802018       -0.0931897258
 H         -3.3398877766       -1.4584487615       -0.5082205852
 H         -3.8193692938        0.1857830903       -0.0975380148
 H         -3.2919911199       -0.9206091356        1.1675066563
 H          0.9486453588        0.5308056318       -1.4267076450
 H          0.7884672829        2.0911784156        1.2087503471
 H          0.3663113449        2.7275170407       -0.3756763543
 H          2.0393393518        2.2940315070       -0.0142126913
 H          2.1238416586       -0.1381038220        1.2532529146
  15
  -2.67996973000000       1.354485274911321E-002 !
 C         -3.0984933141       -0.6167409427        0.1412574103
 C         -1.7701304668       -0.1805516612       -0.0374041607
 C         -0.6228107589        0.1850000421       -0.1881957744
 C          0.7365091313        0.5852585177       -0.3500613004
 C          1.0009339762        2.0123651988        0.1421111231
 C          1.6641527999       -0.4030621202        0.3009839925
 O          1.8266496037       -1.5239936880       -0.0802395452
 H         -3.8007883949       -0.0010408490       -0.4245999875
 H         -3.3945749404       -0.5720467410        1.1914337249
 H         -3.2254775525       -1.6492779619       -0.1909765401
 H          0.9473946487        0.5431045308       -1.4329899707
 H          0.7974919569        2.0912703672        1.2099653459
 H          0.3614808969        2.7329770528       -0.3687292644
 H          2.0387719550        2.3049332349       -0.0212071241
 H          2.1833906790       -0.1135180494        1.2072084885
  15
  -2.67997501000000       1.362074329479418E-002 !
 C         -3.0931801351       -0.6238338934        0.1408691765
 C         -1.7665121193       -0.1807127664       -0.0341108247
 C         -0.6201919027        0.1881657173       -0.1848142052
 C          0.7380828712        0.5895908129       -0.3528665942
 C          1.0049136587        2.0159304774        0.1403066762
 C          1.6697481889       -0.3994023328        0.2916412670
 O          1.8052131773       -1.5299378060       -0.0713361705
 H         -3.1294583544       -1.6964330572        0.3431263897
 H         -3.6965246182       -0.4378237414       -0.7501940035
 H         -3.5770776773       -0.1156469614        0.9776292721
 H          0.9425824662        0.5493821703       -1.4370887568
 H          0.8123967049        2.0915207503        1.2103372065
 H          0.3590785051        2.7365458521       -0.3619766583
 H          2.0402173584        2.3110000680       -0.0328441988
 H          2.2262567833       -0.0967915981        1.1711354397
  15
  -2.67997263000000       1.358648256309653E-002 !
 C         -3.1079924808       -0.6101414387        0.1376586690
 C         -1.7781684015       -0.1777145241       -0.0397460077
 C         -0.6293178404        0.1839405198       -0.1899014271
 C          0.7325347977        0.5783931216       -0.3441003136
 C          1.0010306928        2.0062904587        0.1430549510
 C          1.6503480541       -0.4110971017        0.3186799693
 O          1.8646405511       -1.5117588875       -0.0966855890
 H         -3.6754061972        0.0866742729        0.7580815720
 H         -3.1446426437       -1.5872348915        0.6240168547
 H         -3.6302552417       -0.6998074352       -0.8171147693
 H          0.9518721464        0.5299576229       -1.4250744438
 H          0.7917655951        2.0913038518        1.2092683882
 H          0.3682412128        2.7276737858       -0.3747992163
 H          2.0413045272        2.2926910780       -0.0153653618
 H          2.0989841526       -0.1489448989        1.2701132585
  15
  -2.67996786000000       1.351807636624815E-002 !
 C         -3.0840445262       -0.6366767920        0.1435992771
 C         -1.7631152632       -0.1777705849       -0.0340233540
 C         -0.6192210725        0.1969234386       -0.1873199304
 C          0.7399882209        0.5948877195       -0.3550227029
 C          1.0121150738        2.0199048859        0.1390236004
 C          1.6664333275       -0.3990441237        0.2889566721
 O          1.7860259039       -1.5342283470       -0.0661696939
 H         -3.7210449672       -0.3528891160       -0.6967809008
 H         -3.5323848803       -0.2244888266        1.0500504145
 H         -3.1175073752       -1.7250829668        0.2272297058
 H          0.9443921418        0.5550120839       -1.4393035705
 H          0.8188007158        2.0961249427        1.2090084558
 H          0.3697660409        2.7434815699       -0.3638797258
 H          2.0490896262        2.3106342180       -0.0330402127
 H          2.2410025679       -0.0940595562        1.1540868430
  15
  -2.67996391000000       1.346169049436330E-002 !
 C         -3.0841155133       -0.6332157467        0.1457455755
 C         -1.7614150983       -0.1803747722       -0.0341394828
 C         -0.6169610223        0.1933226393       -0.1884035095
 C          0.7409139519        0.5953426379       -0.3573974505
 C          1.0089324312        2.0198897788        0.1401806034
 C          1.6721899295       -0.3967004445        0.2829293935
 O          1.7800987279       -1.5360277822       -0.0611708961
 H         -3.5269017750       -0.9546601514       -0.7993152033
 H         -3.7230596614        0.1503690857        0.5582830678
 H         -3.1227514870       -1.4827045273        0.8309538792
 H          0.9435853369        0.5586807107       -1.4421451308
 H          2.0450070289        2.3142984569       -0.0312464681
 H          0.8156295955        2.0925619427        1.2102951207
 H          0.3643851946        2.7430331242       -0.3606492820
 H          2.2622566401       -0.0847544870        1.1369001506
  15
  -2.67995957000000       1.340000854512911E-002 !
 C         -3.0862287871       -0.6282481303        0.1456529277
 C         -1.7611892464       -0.1824621090       -0.0338233657
 C         -0.6167509105        0.1902793087       -0.1892189159
 C          0.7407114406        0.5939910811       -0.3572789329
 C          1.0051997914        2.0189519339        0.1411456585
 C          1.6732437672       -0.3967339686        0.2833312446
 O          1.7849370984       -1.5353169067       -0.0621485480
 H         -3.2974908067       -0.8357200814        1.1967963149
 H         -3.2749384953       -1.5470701155       -0.4136068055
 H         -3.8084158796        0.1170555318       -0.1941070280
 H          0.9447406688        0.5581851619       -1.4417484840
 H          0.3585565873        2.7405111267       -0.3592749047
 H          2.0403689603        2.3162042185       -0.0302089891
 H          0.8115942541        2.0906246199        1.2113255375
 H          2.2612554657       -0.0846271076        1.1387722248
  15
  -2.67995822000000       1.338087945505111E-002 !
 C         -3.0924977963       -0.6187626929        0.1459821920
 C         -1.7640395277       -0.1839507687       -0.0366571770
 C         -0.6179646300        0.1845373326       -0.1901879908
 C          0.7394622166        0.5897506582       -0.3552872294
 C          0.9986987442        2.0157453660        0.1428440338
 C          1.6742267286       -0.3975012572        0.2878721935
 O          1.8016841543       -1.5320670854       -0.0676672217
 H         -3.3356645321       -1.4457955801       -0.5242481829
 H         -3.8056277515        0.1843665394       -0.0510220514
 H         -3.2614338069       -0.9650464272        1.1678092202
 H          0.9462079939        0.5534130329       -1.4392371405
 H          2.0340512670        2.3151150487       -0.0238243912
 H          0.7997267973        2.0879323875        1.2119744395
 H          0.3527273500        2.7353781623       -0.3611570820
 H          2.2436207595       -0.0907715775        1.1585631533
