15
 energy: -20.916703148255 gnorm: 0.000095361624 xtb: 6.7.0 (08769fc)
C           -3.34498639442769       -0.34128319657863        0.23926432340502
C           -1.93950011749862       -0.10983370236107       -0.01092134569913
C           -0.77958786255975        0.09071496076183       -0.23809003181043
C            0.63756603616581        0.34568094726216       -0.46325415198962
C            1.08494000835688        1.66443520920545        0.16801799521448
C            1.40481078874263       -0.83889083345964        0.07724514005427
O            2.30545280548014       -0.78972861621797        0.86886410850662
H           -3.81957821022940       -0.75524100093651       -0.65013077408868
H           -3.83445353348384        0.59725709767381        0.49819232497717
H           -3.46412587340940       -1.04240075214424        1.06509613814266
H            0.81434409945106        0.36707241269211       -1.54861863098476
H            0.53294793164227        2.49622331933588       -0.26247989235404
H            2.14909084137494        1.81247716265118       -0.00178355043990
H            0.90771248473224        1.64159504165742        1.24108768911635
H            1.04557911756269       -1.80797500914178       -0.32402788855002
