  15
         -2.54055848
 C         -2.1411826298        0.7495554479       -0.1088255428
 N         -1.4787706467       -0.5193697314        0.1057603879
 C         -0.0974183648       -0.7028204603        0.0329551775
 N          0.3887699843       -1.8860433872       -0.0235098667
 C          0.8118325885        0.4563264275        0.0203774073
 C          2.2783425906        0.2066345175       -0.0609468186
 O          0.3933244251        1.5901714494        0.0670254775
 H         -3.2000023877        0.6996801743        0.1452837419
 H         -2.0343907800        1.0554029389       -1.1495523374
 H         -1.6717241007        1.5084373884        0.5170417241
 H         -2.0742454881       -1.3258226651       -0.0772794468
 H         -0.2304678395       -2.6521628672       -0.0084931689
 H          2.7941314079        0.7265033876        0.7454213999
 H          2.6725284122        0.5738604748       -1.0079662741
 H          2.5003738627       -0.8576009898        0.0161519622
  15
         -2.54045082
 C         -2.1423520252        0.7479560283        0.1237175936
 N         -1.4772574596       -0.5182664307       -0.1003185751
 C         -0.0957949730       -0.7002314855       -0.0323340525
 N          0.3918473377       -1.8825068897        0.0275185401
 C          0.8119146880        0.4592286746       -0.0307733734
 C          2.2763103593        0.1983764298        0.0549383825
 O          0.3909915715        1.5924905749       -0.0773420061
 H         -2.0326973322        1.0481977040        1.1651702500
 H         -3.2027233752        0.6964400859       -0.1264118887
 H         -1.6774160306        1.5112846821       -0.5000302753
 H         -2.0713843756       -1.3285160045        0.0719722508
 H         -0.2257784546       -2.6503432444        0.0199238078
 H          2.5663350403       -0.0280770753        1.0806005882
 H          2.8337971726        1.0754233546       -0.2731690144
 H          2.5571369969       -0.6453711089       -0.5756127254
  15
         -2.54035068
 C         -2.6195339651       -0.4355258931       -0.1849859681
 N         -1.3727831512        0.2099681827        0.1723027479
 C         -0.1261884267       -0.3888033785        0.0313203560
 N          0.0362938289       -1.6479486363       -0.1241287883
 C          1.0247776720        0.5251842820        0.0498384028
 C          2.4009800142       -0.0291438956       -0.0533950287
 O          0.8295391895        1.7158426224        0.1428025728
 H         -2.7796102701       -1.3063122711        0.4488377603
 H         -2.5882347037       -0.7596193941       -1.2250569163
 H         -3.4674526708        0.2379457900       -0.0543232918
 H         -1.3857066168        1.2311972290        0.1380284590
 H         -0.7473296834       -2.2427077938       -0.1309417281
 H          2.8873038796        0.3322588699       -0.9586712439
 H          2.3831619077       -1.1186212800       -0.0821937104
 H          2.9992487878        0.2842890580        0.8015997098
  15
         -2.54026670
 C         -2.6204958812       -0.4346581967       -0.1808885062
 N         -1.3714413697        0.2102223722        0.1696699516
 C         -0.1249381421       -0.3882177718        0.0276354016
 N          0.0386281691       -1.6479031599       -0.1221226401
 C          1.0242248345        0.5271255565        0.0404951631
 C          2.3991421107       -0.0330297646       -0.0483914595
 O          0.8284345980        1.7170967217        0.1430265992
 H         -3.4683563857        0.2330366335       -0.0261800696
 H         -2.7689318266       -1.3167674377        0.4408478495
 H         -2.6031293383       -0.7413443041       -1.2266573913
 H         -1.3843370257        1.2311562858        0.1370260145
 H         -0.7439303863       -2.2442336765       -0.1246798641
 H          2.3987490365       -0.9826023745       -0.5830919186
 H          2.8088045492       -0.1992609863        0.9475246692
 H          3.0540129973        0.6602293209       -0.5755616585
  15
         -2.54021038
 C         -2.6421544813       -0.4760582883       -0.0007257438
 N         -1.3778527283        0.2307462772       -0.0152324991
 C         -0.1269636480       -0.3723263447       -0.0199167894
 N          0.0347175506       -1.6403981896       -0.0580094069
 C          1.0314462502        0.5319108687        0.0254836156
 C          2.4026396909       -0.0448071501        0.0096023080
 O          0.8543257522        1.7287021277        0.0552198485
 H         -3.4845568094        0.2137115183        0.0554451498
 H         -2.6856620411       -1.1410921952        0.8611593204
 H         -2.7444300735       -1.0696231527       -0.9086180805
 H         -1.4237504077        1.2479642846        0.0358811727
 H         -0.7521187389       -2.2301006584       -0.0903401973
 H          2.8670148985        0.1058036202       -0.9642636192
 H          2.3793186081       -1.1142696010        0.2187518731
 H          3.0240181926        0.4413861192        0.7611464331
  15
         -2.54018279
 C         -2.6144936985       -0.4433722525        0.1621885794
 N         -1.3716506960        0.2191092969       -0.1761064055
 C         -0.1239922685       -0.3852735173       -0.0667692322
 N          0.0409740218       -1.6517236738        0.0039013556
 C          1.0228034464        0.5301999153       -0.0134672879
 C          2.3946083470       -0.0401123198        0.0706829323
 O          0.8253035808        1.7244945015       -0.0212777530
 H         -2.5726891215       -0.8168230825        1.1841601602
 H         -2.7805096185       -1.2828207661       -0.5110121893
 H         -3.4639918170        0.2346377584        0.0724538982
 H         -1.3836812663        1.2357480059       -0.0762135712
 H         -0.7406873701       -2.2478369436       -0.0365891589
 H          3.1359966269        0.7344795304       -0.1226841983
 H          2.5277055589       -0.8368871752       -0.6609864302
 H          2.5789168918       -0.4516003987        1.0628277111
  15
         -2.54006065
 C         -2.6399256262       -0.4804210809        0.0069708975
 N         -1.3784821017        0.2311727406       -0.0196459896
 C         -0.1261978118       -0.3690712708       -0.0217070403
 N          0.0375392281       -1.6370393530       -0.0589314229
 C          1.0307190212        0.5353449485        0.0225842087
 C          2.3979326987       -0.0527838553        0.0161013415
 O          0.8549949000        1.7328732672        0.0491347305
 H         -3.4846320390        0.2068052797        0.0525049270
 H         -2.6801197272       -1.1321243518        0.8790664945
 H         -2.7406088820       -1.0885875320       -0.8913015690
 H         -1.4268363672        1.2480709018        0.0373824502
 H         -0.7493633039       -2.2268801519       -0.0928177984
 H          2.4734329133       -0.8638762590        0.7398290446
 H          3.1349403964        0.7081404145        0.2714126668
 H          2.6410036925       -0.4492500940       -0.9694535793
  15
         -2.53928897
 C         -2.6181329691       -0.3790796834        0.2460948090
 N         -1.3708911032        0.1884526938       -0.2343495863
 C         -0.1216641415       -0.4075501327       -0.0757565768
 N          0.0589727663       -1.6712441377        0.0099608282
 C          1.0177091382        0.5201075465       -0.0191290890
 C          2.3961825944       -0.0199310151        0.1237291278
 O          0.8098465718        1.7102060053       -0.0899988319
 H         -2.9971595966        0.1828498224        1.0999749237
 H         -2.4774849881       -1.4104650109        0.5631681091
 H         -3.3677609111       -0.3629710060       -0.5451807447
 H         -1.3657900596        1.2104831614       -0.2584847307
 H         -0.7053716334       -2.2849248561       -0.0708834428
 H          2.9923918635        0.2268548806       -0.7539383699
 H          2.3819580720       -1.1037749726        0.2390056346
 H          2.8825284324        0.4140419518        0.9969128385
