  15
         -2.54055848
 C         -2.1411826298        0.7495554479       -0.1088255428
 N         -1.4787706467       -0.5193697314        0.1057603879
 C         -0.0974183648       -0.7028204603        0.0329551775
 N          0.3887699843       -1.8860433872       -0.0235098667
 C          0.8118325885        0.4563264275        0.0203774073
 C          2.2783425906        0.2066345175       -0.0609468186
 O          0.3933244251        1.5901714494        0.0670254775
 H         -3.2000023877        0.6996801743        0.1452837419
 H         -2.0343907800        1.0554029389       -1.1495523374
 H         -1.6717241007        1.5084373884        0.5170417241
 H         -2.0742454881       -1.3258226651       -0.0772794468
 H         -0.2304678395       -2.6521628672       -0.0084931689
 H          2.7941314079        0.7265033876        0.7454213999
 H          2.6725284122        0.5738604748       -1.0079662741
 H          2.5003738627       -0.8576009898        0.0161519622
