11
 energy: -16.156823220090 gnorm: 0.000023385288 xtb: 6.7.0 (08769fc)
C            1.40799941675114       -0.00010925143395       -0.00000211545362
C            0.70104195100833        1.19235645240718        0.00000150784814
C           -0.68506404069683        1.13379573931544        0.00000893152369
N           -1.36631948907764        0.00010894034471        0.00000478847042
C           -0.68524229991171       -1.13368513800505       -0.00000465552583
C            0.70085446736085       -1.19246390518915       -0.00000376081192
H            2.48901795387455       -0.00019410616101       -0.00000665307766
H            1.21098723216428        2.14370934651827       -0.00001426186579
H           -1.28346758915217        2.03635806852935       -0.00001336687947
H           -1.28378903435658       -2.03615247420833        0.00003002414381
H            1.21065055023580       -2.14389672931745        0.00000955862822
