  9
  -2.07197058000000       0.478108834239240      !
 O         -2.0950674795        1.0780065890       -0.0581259920
 C         -0.9679313338        0.9535557162        0.3097245748
 C          0.0476309390        0.0939831378       -0.3913867020
 C         -0.1396151966       -1.2795370504       -0.0830436490
 N         -0.2857417549       -2.3983824187        0.1748886198
 C          1.3800602835        0.4933636198       -0.1035904189
 N          2.4630040437        0.8205794815        0.1400275201
 H         -0.6951088599        1.4822349248        1.2209995417
 H         -0.1200254592        0.2174309230       -1.4774837477
  9
  -2.07196525000000       0.475419805498823      !
 O         -1.6330923516        1.6974364844       -0.0687286751
 C         -1.1840935205        0.6618327204        0.3160048356
 C         -0.0808803516       -0.0797368897       -0.3875418135
 C         -0.0797595916       -1.4657825378       -0.0758867409
 N         -0.0840293178       -2.5927575665        0.1873260284
 C          1.1865523887        0.4964403206       -0.1072799400
 N          2.2189429086        0.9647120290        0.1262211713
 H         -1.5979508237        0.2677353235        1.2422315441
 H         -0.2620038662        0.0266183834       -1.4733624785
  9
  -2.06976777000000       4.647136026193750E-002 !
 O         -1.5355424927        1.1610474896        0.6299739031
 C         -1.1263149518        0.8571967786       -0.4471940686
 C          0.0674497637       -0.0336924821       -0.6682781145
 C         -0.1612588741       -1.3336154491       -0.1455808795
 N         -0.3513840760       -2.3952070476        0.2746807574
 C          1.2372779761        0.5235813234       -0.0880763740
 N          2.1935163893        0.9760672608        0.3818053787
 H         -1.6784630987        1.2675415957       -1.2922001081
 H          0.2493457595       -0.1369054687       -1.7539875542
