9
 energy: -19.382503358652 gnorm: 0.000047794520 xtb: 6.7.0 (08769fc)
O           -1.85383037817065        1.57087744140343       -0.23223636371407
C           -0.99762923829709        0.94604534254961        0.30971966917535
C            0.01738944207943        0.07489266765385       -0.44917414044941
C           -0.10627734421085       -1.29992980556638       -0.00415743064731
N           -0.21273095941424       -2.37884356820869        0.35109576302139
C            1.35871491667780        0.55055125311157       -0.16993002903414
N            2.40940451843855        0.93434171811693        0.05447000436371
H           -0.85178648542219        0.93234028729228        1.40232984331834
H           -0.17604928938077        0.13095958664741       -1.53010756923388
