  16
         -2.63072067
 C         -1.2589446273       -1.4093473412        0.4813604369
 C         -1.5373656854        0.0082968869        0.0137134503
 C         -0.7991175050        0.5392850296       -1.1623816867
 N         -0.5830599705        1.1189845494        0.1920075819
 C          0.6743870718        0.7669893587        0.9004873498
 C          1.7199864247        0.1505877040        0.0400334382
 O          1.6238663237       -0.9309025700       -0.4566729040
 H         -1.5264457319       -1.5415631028        1.5301854164
 H         -0.2050566505       -1.6609615037        0.3699092461
 H         -1.8254345948       -2.1331861209       -0.1057085266
 H         -2.5887034170        0.3007980502        0.1107833275
 H         -1.3214545174        1.1674186236       -1.8832217192
 H         -0.0047617594       -0.0679959065       -1.5929108827
 H          0.4373566258        0.0979623853        1.7317698131
 H          1.0557744025        1.6857467481        1.3586539502
 H          2.6168210508        0.7134659595       -0.1943703920
  16
         -2.62953737
 C         -1.0189881675       -1.4656681749       -0.2694564329
 C         -1.3641491868       -0.1008704603        0.3017478062
 C         -1.6609437282        1.0311133948       -0.6206780173
 N         -0.4534523291        1.0569221506        0.2459842385
 C          0.8309578268        0.8277214561       -0.4539068639
 C          1.7825853562        0.0354993913        0.3707837675
 O          1.7383965703       -1.1518231107        0.4921836766
 H         -1.9140260742       -2.0704556230       -0.4210680184
 H         -0.3490005300       -2.0067422961        0.4003133326
 H         -0.5168468820       -1.3839275980       -1.2317809922
 H         -1.9473188683       -0.1552380990        1.2276099455
 H         -2.4559442263        1.7319189770       -0.3681474607
 H         -1.5143736955        0.8893448129       -1.6903442793
 H          1.2563741244        1.8064928867       -0.6977939591
 H          0.6628901011        0.3250082665       -1.4088476076
 H          2.5318401580        0.5534842152        0.9609525523
  16
         -2.62798118
 C         -1.4911115924       -1.2966335560        0.6992260055
 C         -1.5869614309        0.0548912785        0.0155439312
 C         -0.7551891322        0.3234645785       -1.1884770122
 N         -0.5149678622        1.0650266120        0.0798035850
 C          0.6641708746        0.6963579374        0.9055333208
 C          1.5775997562       -0.3198256088        0.3150467752
 O          1.9382593370       -0.3319894898       -0.8227041358
 H         -0.4675256687       -1.6658968814        0.7087504674
 H         -2.0964718147       -2.0406566303        0.1801253382
 H         -1.8354336586       -1.2430858563        1.7323538574
 H         -2.5994297088        0.4733270078        0.0181663834
 H         -1.1727126350        0.9006911418       -2.0126888950
 H         -0.0147610121       -0.4136223115       -1.4933838333
 H          0.3099906874        0.3823254729        1.8920302996
 H          1.2313673994        1.6184123683        1.0677197225
 H          1.9988604827       -1.0861956960        0.9572020528
  16
         -2.62682172
 C         -2.1383294343       -1.1500714562        0.6241031037
 C         -1.8187285417        0.2890568575        0.2587126746
 C         -1.3206418617        0.6152460498       -1.1061874968
 N         -0.4411714657        0.7819856202        0.0796019551
 C          0.6108451744       -0.2535019653        0.2249062297
 C          1.9698699149        0.2925663397       -0.0268165920
 O          2.9682218129       -0.3647619557       -0.0553533243
 H         -2.0706725133       -1.3070769289        1.7011210070
 H         -1.4565917621       -1.8502981150        0.1441776125
 H         -3.1473482483       -1.4180106721        0.3083396100
 H         -2.4946659959        1.0151158692        0.7236693655
 H         -1.6551944891        1.5304872509       -1.5935803340
 H         -1.0975968261       -0.1992446576       -1.7937750312
 H          0.4308553228       -1.0813891408       -0.4651940343
 H          0.5667603699       -0.6622586395        1.2385134650
 H          2.0770557669        1.3590322983       -0.1895414489
